<routes xmlns:xsi="http://www.w3.org/2001/XMLSchema-instance" xsi:noNamespaceSchemaLocation="http://sumo.dlr.de/xsd/routes_file.xsd">
    <vehicle id="0" depart="0.00">
        <route edges="7381081#4 -7381081#4 -7381081#3 -7381081#2 -7381081#1 -7381081#0 144377976#0 144377976#1 144377976#2 144377976#3 32011213#2 32011213#3 32011213#5 32011213#6 32011213#11 224504156#0 224504156#1 224504156#2 325880100#2 224504148#0 224504148#1 224504148#2 -738596215#7 -159254426#3 -159254426#2" />
    </vehicle>
    <vehicle id="1" depart="1.00">
        <route edges="-7384300#0 -482997282#6 -482997282#5 -482997282#4 -482997282#3 -482997282#1 324205830#0 324205830#1 324205830#3 375495397#0 324205829#0 324205829#1 739784621#0 739784621#1 739784621#2 326104011#1 7383412#0 7383412#1 -7383301#14 -7383301#13 -7383301#11 -7383301#10 -7383301#9 -7383301#8 -7383301#7 -7383301#5 -7383330#2" />
    </vehicle>
    <vehicle id="2" depart="2.00">
        <route edges="7383113#2 7383113#3 7383113#4 7383113#5 7383113#6 7383113#7 7383113#8 7383113#9 373705219 17257960#0 17257960#1 17257960#2 17257960#4 17257960#5 -7382781#1 -7382781#0 -7382845#2 7382845#2 7382781#0" />
    </vehicle>
    <vehicle id="3" depart="3.00">
        <route edges="7384586#4 7384586#5 7385055 330165528#0 330165528#1 330165528#2 7385054#5 386883299#0 328244230#4 328244230#5 328244230#6 707009415#0 707009415#2 707009415#3 7385159#1 431018817 17262160#0 17262160#1 17262160#2 47454645#0 47454645#2 328244233#2 328244233#4 37546755#0 37546755#4 740288269#0 7381420#4 25733984 7382845#0 7382845#1 7382845#2 7382781#0 7382781#1 7382899#0 7382899#1 -1279356630 1279356627#0 1279356627#1 7382875#2 1279356626#0 1279356626#1 1279356626#2 -1279356625#0 -465058626#4 -465058626#3 -465058626#2 -465058626#1" />
    </vehicle>
    <vehicle id="4" depart="4.00">
        <route edges="1270857682 775235607#0 7381628 1270857691#0 706997155 7381727 7381817 38245925 491573232 1269325984 776820734 7382996#0 7382999#0 7382942 25913377 7382945 7382955 817903908 7382937#0 7383459#0 7383459#3 7383486 146387544#0 146387544#1 146387544#3 326104011#1 7383412#0 7383412#1 326103965#2 326103965#4 326103965#5 326103965#6 326103965#7 326103965#8 326103965#10 326103965#11 326103965#13 326103965#14 326103965#15 326103965#16 -290636861 -7384340 -160237519#1" />
    </vehicle>
    <vehicle id="6" depart="6.00">
        <route edges="-152798707#1 -152798707#0 -326103965#11 -326103965#10 -326103965#8 -326103965#7 -326103965#6 -326103965#5 -326103965#4 -326103965#3 7383411#1 7383411#2 739784622#0 739784622#1 7383491#0 7383491#1 7383457#2 7383457#4 7383457#5 7383457#6 7383449 707016160 328244233#2 290733544 7383221#1 -7383221#1 -7383221#0" />
    </vehicle>
    <vehicle id="7" depart="7.00">
        <route edges="7381367#3 91428602#2 27305494 1095951056#0 1095951056#1 27718618#0 27718618#1 1095951055#0 511452724#4 511452724#5 37546755#4" />
    </vehicle>
    <vehicle id="8" depart="8.00">
        <route edges="-7383301#0 91145195#2 1384353458#1 7382862#1 -7382862#1 -91145198 -1384353458#0 -91145195#0 7383301#2 7383301#3 7383301#5 7383301#7 7383301#8 7383301#9 7383301#10 7383301#11 7383301#13 7383301#14 7383411#1 7383411#2 739784622#0 739784622#1 7383491#0 7383491#1 7383457#2 7383457#4 7383457#5 7383457#6 7383449 707016160 328244233#2 328244233#4 37546755#0 7384949#0 7384949#1 7384949#3 7384987#0 7384987#1 7384987#2 7384859#0 511452724#1" />
    </vehicle>
    <vehicle id="9" depart="9.00">
        <route edges="7384122#1 7384144#6 7384323#1 7384323#2 37553296 27268752#2 7384167#0 7384167#1 7384167#2 326103991#0 326103991#1 326103991#2 -118903564 -118925038#12 -118925038#11 -118925038#10 -118925038#8 -118925038#6 -118925038#5 -118925038#4 -118925038#3 7383457#2 7383457#4 7383457#5 7383457#6 7383449 707016160 29749817#0 29749817#1 29749817#2 29749817#3 29749817#4 93220776#0 7384652#3 200404876#1 200404876#2 200404876#4 200404876#5 224458071#0 224458071#1 224458071#2 224458071#3 224458071#4 7384648#0 7384648#1 1149134108#2 1149134108#3 -1149134108#3" />
    </vehicle>
    <vehicle id="11" depart="11.00">
        <route edges="-7384886#4 -7384886#3 -7384886#2 -7384886#1 -7384886#0 402970039#2 402970039#3 402970039#4 402970039#5 402970039#6 328244233#4 37546755#0 37546755#4 740288269#0 7381420#4 25733984 7382845#0 7382845#1 7382845#2 7382781#0 7382781#1 7382899#0 7382899#1 -1279356630 1279356627#0 1279356627#1 7382875#2 7382875#3 7382875#4 1279356631 1279356633 326594039 7382875#0 35937895#0 35937895#1 1279356630 -7382899#1" />
    </vehicle>
    <vehicle id="13" depart="13.00">
        <route edges="-465058625#4 -465058625#3 -465058625#2 -465058625#1 7382879#1 118925046#0 118925046#1 118925046#2 7382875#4 1279356631 1279356633 326594039 7382875#0 35937895#0 35937895#1 1279356630 -7382899#1 -7382899#0 -7382781#1 -7382781#0 -7382845#2 -7382845#1 -7382845#0 -25733984 -7381420#5 328244226#1 328244226#4 328244226#5 25221021#1 290733544 7383221#1 7383134 -7383137 -482997281#6 -482997281#5" />
    </vehicle>
    <vehicle id="14" depart="14.00">
        <route edges="7384310#1 7384310#2 -7384310#2 -7384310#1 -7384310#0 -160237536#8 -160237536#6 -160237536#5 -160237536#4 -160237536#3 -160237536#2 -160237536#1 -160237536#0 190590640#2 190590640#3 190590640#4 190590640#5 190590640#6 190590640#7 190590640#8 -482997282#6 -482997282#5 -482997282#4 -482997282#3 -482997282#1 7383449 707016160 29749817#0 29749817#1 29749817#2 29749817#3 29749817#4 93220776#0 34079950#2 34079950#3 34079950#6 386883300#1 707009892 -156436572 -330165528#2 -330165528#1 -330165528#0 60009452#0 60009452#1 60009452#2 60009452#3" />
    </vehicle>
    <vehicle id="15" depart="15.00">
        <route edges="7383489#1 -7383262#4 -7383262#3 7383042#0 -7383043#1 -7383022#5 -7383022#4 -7383022#2 7383457#2 7383457#4 7383094#0 7383094#1 7383094#2 7383094#3" />
    </vehicle>
    <vehicle id="16" depart="16.00">
        <route edges="35937897#0 35937897#1 856512473#1 640548016#0 1429716347 682523494#0 682523494#1 682523494#2 682523494#3 817903906#1 512686500 7382931 7382927 7382926 7382933#0 7383001 228453578 7382977 1269325982 491573234 1269325981 7381747 1270857700 775236442 1270857701 7380998 7385091 707000453 707000454#0 32011213#11 224504156#0 224504156#1 224504156#2 325880100#2 224504148#0 224504148#1 224504148#2 -738596215#7 -738596215#5 -738596215#4 -738596215#3 -738596215#1 -738596215#0 738596215#0 738596215#1 738596215#3 738596215#4 738596215#5" />
    </vehicle>
    <vehicle id="18" depart="18.00">
        <route edges="7384201#1 7384201#2 -7383304#2 -7384205#2 -7384205#1 -7384205#0 -7384298#1 -7384298#0 -118925038#6 -118925038#5 -118925038#4 -118925038#3 7383457#2 7383457#4 7383457#5 7383457#6 7383449 707016160 29749817#0 29749817#1 29749817#2 29749817#3 29749817#4 93220776#0 407033673#1 407033673#2 707009260#0" />
    </vehicle>
    <vehicle id="19" depart="19.00">
        <route edges="7384405#0 -7384405#0 -443156105 27318751 326103991#0 326103991#1 326103991#2 -118903564 -118925038#12 -118925038#11 -118925038#10 -118925038#8 -118925038#6 -118925038#5 -118925038#4 -118925038#3 7383457#2 7383457#4 7383457#5 7383457#6 7383449 707016160 47454644#2 47454644#3 47454644#4" />
    </vehicle>
    <vehicle id="20" depart="20.00">
        <route edges="7383016#3 7383016#4 7383016#5 -326103965#4 -326103965#3 7383411#1 7383411#2 739784622#0 739784622#1 7383491#0 7383491#1 7383457#2 7383457#4 7383457#5 7383457#6 482997282#1 482997282#3 482997282#4 482997282#5 482997282#6 -190590640#8 -190590640#7 -190590640#6 -190590640#5 -190590640#4" />
    </vehicle>
    <vehicle id="21" depart="21.00">
        <route edges="-7383330#1 -7383330#0 7383330#0 7383330#1 7383330#2 7383301#5 7383301#7 7383301#8 7383301#9 7383301#10 7383301#11 7383301#13 7383301#14 326103965#2 7383346#0 7383346#1 7383346#2 7383346#4 7383346#5 -7384364#1" />
    </vehicle>
    <vehicle id="22" depart="22.00">
        <route edges="-330165531 7385055 330165528#0 330165528#1 330165528#2 7385054#5 386883299#0 328244230#4 328244230#5 328244230#6 707009415#0 707009415#2 707009415#3 7385159#1 431018817 17262160#0 17262160#1 17262160#2 47454645#0 47454645#2 29749956#1 29749956#2 707016158 324205830#0 324205830#1 324205830#3 375495397#0 324205829#0 324205829#1 739784621#0 739784621#1 739784621#2 326104011#1 7383412#0 7383412#1 -7383301#14 -7383301#13 7383441#0 7383441#1 7383441#2 -7383365" />
    </vehicle>
    <vehicle id="23" depart="23.00">
        <route edges="-482997282#1 482997282#1 482997282#3 482997282#4 482997282#5 482997282#6 -190590640#8 -190590640#7 -190590640#6 -190590640#5 -190590640#4 -190590640#3 -190590640#2 -190590640#0 160237536#1 160237536#2 7384495 -7384309#2" />
    </vehicle>
    <vehicle id="24" depart="24.00">
        <route edges="7381028#5 7381028#6 7381028#7 7381028#8 7381028#9 -7381028#9 -7381028#8 -7381028#7 -7381028#6 -7381028#5 159254426#1 159254426#2 159254426#3 738596215#7 224504159#0 224504159#1 224504159#2 7381491#0 7381491#1 224504147#0 224504147#1 224504147#2 -7381014#1 -7381014#0 1149134109#0 1149134109#1 1149134109#2 1149134109#3 1149134109#4 -1149134108#3 -1149134108#2 -1149134108#0 -7384648#0 224458064#0 224458064#1 224458064#2 7385025#2 402970039#0 402970039#1 402970039#2 402970039#3 402970039#4 402970039#5 7385022#1 -7385022#1" />
    </vehicle>
    <vehicle id="26" depart="26.00">
        <route edges="-7384201#1 -7384201#0 -7384150#1 -118925038#10 -118925038#8 -118925038#6 -118925038#5 -118925038#4 -118925038#3 7383457#2 7383457#4 7383457#5 7383457#6 7383449 707016160 328244233#2 328244233#4 37546755#0 7384949#0 7384949#1 7384949#3 7384987#0 7384987#1 7384987#2" />
    </vehicle>
    <vehicle id="28" depart="28.00">
        <route edges="-7383042#2 -7383042#1 -7383043#1 -7383022#5 -7383022#4 -7383022#2 7383457#2 7383457#4 7383094#0 7383094#1 7383094#2" />
    </vehicle>
    <vehicle id="29" depart="29.00">
        <route edges="-7383016#5 -7383016#4 -7383016#3 -7383016#2 -7383016#0 -326103965#5 -326103965#4 -326103965#3 7383411#1 7383411#2 739784622#0 739784622#1 326104007 739784621#0 443156554 7383489#0 7383489#1 7383489#2 7383474 156355461 29990035#0 7383452#1 7383442#0 7383442#1 817903907 817903906#1 512686500 7382931 7382927 7382926 7382933#0 7383001 228453578 7382977 1269325982 491573234 1269325981 7381747 1270857700 775236442 1270857701 7380998 7385091 707000453 707000454#0 32011213#11 224504156#0 224504156#1 224504156#2 325880100#2 224504148#0 224504148#1 224504148#2 -738596215#7 -738596215#5 -738596215#4 -738596215#3 -738596215#1 -738596215#0" />
    </vehicle>
    <vehicle id="30" depart="30.00">
        <route edges="871208700 -7383441#5 -7383441#4 -7383441#3 -7383441#2 -7383441#1 -7383441#0 7383301#13 7383301#14 7383411#1 7383411#2 739784622#0 739784622#1 7383491#0 7383491#1 7383457#2 7383457#4 7383457#5 7383457#6 7383449 707016160 328244233#2 328244233#4 37546755#0 37546755#4 740288269#0 328244227#1 328244227#2 7381366#0 7381366#1 7381366#2 7381366#3 7381366#4 7381366#5 -7381112#6 -7381112#4 -7381112#3 -7381112#2 7381112#2" />
    </vehicle>
    <vehicle id="31" depart="31.00">
        <route edges="426530259#0 426530259#1 7381360#0 7381360#1 7381360#2 -27305494 7381440#0 7381440#3 7381420#4 25733984 7382845#0 7382845#1 7382845#2 7382781#0 7382781#1 7382899#0 7382899#1 -1279356630 1279356627#0 1279356627#1 7382875#2 7382875#3 7382875#4 1279356623#0 1279356623#1 7382913#0 7382913#1 7382900#0 7382900#1 465058627 7382846#0 7382846#2 326594002#0 326594002#1 7382870#9 7382870#10 7382870#11 7382870#0 7382870#1 7382870#2 7382870#3 7382870#4 7382870#5 -7382862#13 -7382862#12 -7382862#11 -7382862#10 -7382862#8 -7382862#7 -7382862#3 -7382862#2 -7382862#1 -91145198 -1384353458#0 -91145195#0 -7383301#0 91145195#2 1384353458#1 7382862#1" />
    </vehicle>
    <vehicle id="32" depart="32.00">
        <route edges="7384309#10 7384309#11 -7384310#2 -7384310#1 -7384310#0 160237536#9 160237536#10 160237536#11 160237536#12 190590623#1 443156104 326103991#2 -118903564 -118925038#12 -118925038#11 -118925038#10 -118925038#8 7384298#0 7384298#1 7383012#0 7383012#1 7383012#2 7383012#3 7383304#0 7383304#1" />
    </vehicle>
    <vehicle id="33" depart="33.00">
        <route edges="-7383339#1 -7383339#0 -7383346#0 326103965#4 326103965#5 326103965#6 326103965#7 326103965#8 326103965#10 326103965#11 326103965#13 326103965#14 326103965#15 326103965#16 -290636861 -7384340 -160237519#1 -160237519#0 -7384405#4 -7384405#3 -7384405#2 -7384405#1 -7384405#0 -443156105 27318751 326103991#0 443156106 190590633 -160237536#12 -160237536#11 -160237536#10" />
    </vehicle>
    <vehicle id="34" depart="34.00">
        <route edges="-7384469#5 -7384469#4 -7384469#3 7383339#3 7383339#4 -290636862#0 -46590527#1 -46590527#0 -290636861 -7384340 -160237519#1 -160237519#0 -7384405#4 -7384405#3 -7384405#2 -7384405#1 -7384405#0 -443156105 27318751 -7384167#2 -7384167#1 -7384167#0 -27268752#2 -27268752#0 -7384323#2 -7384323#1 7384144#7 7384144#8 7384144#9 7384144#10 7384228#1 -7384228#1" />
    </vehicle>
    <vehicle id="35" depart="35.00">
        <route edges="-7383259#1 -7383259#0 -7383022#9 -7383022#8 -7383022#7 -7383022#6 -7383022#5 -7383022#4 -7383022#2 7383457#2 7383457#4 7383457#5 7383457#6 7383449 707016160 29749817#0 29749817#1 29749817#2 29749817#3 29749817#4 93220776#0 34079950#2 34079950#3 34079950#6 386883300#1 707009892 156436573#0 156436573#1 156436573#2 156436571#0 7385015#1 7385015#4 7385015#7" />
    </vehicle>
    <vehicle id="36" depart="36.00">
        <route edges="7384453#1 7384309#6 7384309#7 7384309#8 7384288 160237536#8 160237536#9 160237536#10 160237536#11 160237536#12 190590623#1 443156104 326103991#2 327373697 443156105 7384405#0 7384405#1 7384405#2 7384405#3 7384405#4 7384405#5 160237519#1 160237519#2 290636861 46590527#0 46590527#1 290636862#0 -7383339#4 7384348#2 7384348#3 7384364#0 7384469#6 7384469#7 -7384469#7" />
    </vehicle>
    <vehicle id="37" depart="37.00">
        <route edges="7381685 1270857701 7380998 7385090 7385089 739791357 7385162#0 7385162#1 707002636#0 707009270 407033663#0 407033663#2 707009269 707009271 707009273 707009272 235197282#0 235197282#2 707009263 990055230 799454732#0 799454732#1 707009261#0 34079950#2 34079950#3 7385029#3 7385029#4 7385029#5 7385029#6 1021281593#0 1021281593#1 1021281593#2 893142893#4 893142893#0 893142893#1 893142893#2 1021281592#0 1021281592#1" />
    </vehicle>
    <vehicle id="38" depart="38.00">
        <route edges="7384887#1 7384887#2 7384887#4 7384548#1 47454642#8 375495398 29749956#1 29749956#2 707016158 324205830#0 324205830#1 324205830#3 375495397#0 118925038#2 118925038#4 118925038#5 118925038#6 118925038#8 118925038#10 118925038#11 118925038#12 118903564 327373697 443156105 7384405#0 7384405#1 7384405#2 7384405#3 7384405#4 7384405#5 160237519#1" />
    </vehicle>
    <vehicle id="39" depart="39.00">
        <route edges="-7384198#0 -7384405#0 -443156105 27318751 326103991#0 326103991#1 326103991#2 -118903564 -118925038#12 -118925038#11 -118925038#10 -7384139#8 -7384139#7 -7384139#6 -7384139#5 -7384139#4 -7384139#3" />
    </vehicle>
    <vehicle id="40" depart="40.00">
        <route edges="443374613#1 443374613#2 -443374613#2 -443374613#1 -443374613#0 32011213#1 32011213#2 32011213#3 32011213#5 32011213#6 707000455#1 -707000453 7385092 7385089 739791357 7385162#0 7385162#1 707002636#0 707009270 407033663#0 407033663#2 707009269 707009271 707009273 707009272 235197282#0 235197282#2 707009263 990055230 799454732#0 799454732#1 707009261#0 7385159#1 431018817 17262160#0 17262160#1 17262160#2 47454645#0 47454645#2 29749956#1 29749956#2 707016158 324205830#0 324205830#1 324205830#3 375495397#0 118925038#2 118925038#4 118925038#5 118925038#6 118925038#8 118925038#10 7384150#1 7384201#0 -7384201#0" />
    </vehicle>
    <vehicle id="41" depart="41.00">
        <route edges="482997282#6 -482997282#6 -482997282#5 -482997282#4 -482997282#3 -482997282#1 7383449 707016160 29749817#0 29749817#1 29749817#2 29749817#3 29749817#4 93220776#0 34079950#2 34079950#3 34079950#6 386883300#1 707009892 -156436572 -330165528#2 -330165528#1 -330165528#0 -330165531 7384586#9 -7384636#11 -7384636#10 -7384636#9 -7384636#7 -7384636#6 7384636#6 7384636#7" />
    </vehicle>
    <vehicle id="42" depart="42.00">
        <route edges="1021281593#2 893142893#4 7385008#0 7385008#1 7385008#2 893142889#0 893142889#1 7384887#0 7384887#1 7384887#2 7384887#4 7384548#1 47454642#8 375495398 29749956#1 29749956#2 707016158 324205830#0 324205830#1 324205830#3 375495397#0 324205829#0 324205829#1 739784621#0 739784621#1 739784621#2 326104011#1 7383412#0 7383412#1 -7383301#14 -7383301#13 -7383301#11 -7383301#10 -7383301#9 -7383301#8 -7383301#7" />
    </vehicle>
    <vehicle id="43" depart="43.00">
        <route edges="932943735#0 932943735#1 30027480 -30027480 -932943735#1 -932943735#0 -17257960#1 -17257960#0 7383078#0 7383078#1 7383078#2 1436127903 35937898#1 35937897#0 35937897#1 856512473#1 640548016#0 640548016#1 640548016#2 -640548019#2 -640548019#0 7383233#0 7383233#1 46590526 27379402#2 -7383022#12 -7383022#10 -7383022#9 -7383022#8 -7383022#7 -7383022#6 -7383022#5 -7383022#4 -7383022#2 324205829#0 324205829#1 739784621#0 739784621#1 739784621#2 326104011#1 7383412#0 7383412#1 326103965#2 326103965#4 326103965#5 326103965#6 7384469#0 7384373#0 7384373#1 7384348#1 7383339#4 290636862#1 290636862#2 290636862#3 290636862#4 290636862#5" />
    </vehicle>
    <vehicle id="44" depart="44.00">
        <route edges="-465058623 -7382900#0 -7382913#1 -7382913#0 1279356622#0 1279356622#1 1279356633 1279356624#0 1279356624#1 -7382673#3 -7382673#2 -7382673#1 -7382673#0 640548016#0 640548016#1 640548016#2 -640548019#2 -640548019#0 7383233#0 7383233#1 46590526 27379402#2 -7383022#12 -7383022#10 -7383022#9 -7383022#8 -7383022#7 -7383022#6 -7383022#5 -7383022#4 -7383022#2 7383457#2 7383457#4 7383457#5 7383457#6 482997282#1 482997282#3 482997282#4 482997282#5 482997282#6 -190590640#8 -190590640#7" />
    </vehicle>
    <vehicle id="45" depart="45.00">
        <route edges="-60009452#2 -60009452#1 -60009452#0 330165528#0 330165528#1 330165528#2 7385054#5 386883299#0 328244230#4 328244230#5 328244230#6 707009415#0 707009415#2 707009415#3 407033673#1 407033673#2 707009260#0 407033658 799454731#0 799454731#1 29294263 680303812 680303811 707009268#0 707009268#1 707009268#2 739791356 29294360#1 739791355 707002641 707002642 -707000452 32011213#5 32011213#6 707000455#1 -707000453 7385092 7385089 739791357 7385162#0 7385162#1 707002636#0 707009270 407033663#0 407033663#2 707009269 707009271 707009276" />
    </vehicle>
    <vehicle id="46" depart="46.00">
        <route edges="7383411#2 739784622#0 739784622#1 326104007 739784621#0 443156554 7383489#0 7383489#1 7383489#2 7383474 156355461 29990035#0 7383452#1 7383442#0 7383442#1 817903907 817903906#1 512686500 7382931 7382927 7382926 7382933#0 7383001 228453578 7382977 1269325982 491573234 1269325981 7381747 1270857700 775236441#0 7381682 1270857692#0 680090992 32011082#0 1270857685" />
    </vehicle>
    <vehicle id="47" depart="47.00">
        <route edges="-290636862#5 -290636862#4 -290636862#3 -290636862#2 -290636862#1 -7383339#4 -7383339#3 -7384469#2 -7383272#1 -7383272#0 -7383346#0 -326103965#3 7383411#1 7383411#2 739784622#0 739784622#1 326104007 739784621#0 443156554 7383489#0 7383489#1 7383489#2 7383474 156355461 29990035#0 7383452#1 7383442#0 7383442#1 817903907 817903906#1 512686500 7382931 7382927 7382926 7382933#0 7383001 228453578 7382977 1269325982 491573234 1269325981 7381747 1270857700 775236442 1270857701 7380998 7385091 707000453 707000454#0 32011213#11 224504156#0 224504156#1 224504156#2 325880100#2 224504148#0 224504148#1 224504148#2 -738596215#7" />
    </vehicle>
    <vehicle id="48" depart="48.00">
        <route edges="93220776#0 7385159#1 431018817 17262160#0 17262160#1 17262160#2 47454645#0 47454645#2 29749956#1 29749956#2 707016158 324205830#0 324205830#1 324205830#3 375495397#0 324205829#0 324205829#1 739784621#0 739784621#1 739784621#2 326104011#1 7383412#0 7383412#1 326103965#2 326103965#4 326103965#5 326103965#6 326103965#7 326103965#8 326103965#10 326103965#11 326103965#13 326103965#14 326103965#15 326103965#16" />
    </vehicle>
    <vehicle id="49" depart="49.00">
        <route edges="7385159#1 431018817 17262160#0 17262160#1 17262160#2 47454645#0 47454645#2 29749956#1 29749956#2 707016158 324205830#0 324205830#1 324205830#3 375495397#0 324205829#0 324205829#1 739784621#0 739784621#1 739784621#2 326104011#1 7383412#0 7383412#1 326103965#2 326103965#4 326103965#5 326103965#6 7384469#0 7384373#0 7384373#1 7384348#1 7383339#4 290636862#1 7384381#0 7384381#1 7384381#2" />
    </vehicle>
    <vehicle id="50" depart="50.00">
        <route edges="-118925038#8 -118925038#6 -118925038#5 -118925038#4 -118925038#3 7383457#2 7383457#4 7383457#5 7383457#6 -160237515#8 -160237515#7 -160237515#6 7383057#0" />
    </vehicle>
    <vehicle id="51" depart="51.00">
        <route edges="7382846#0 7382846#2 -7382920#2 -7382920#1 7382922 817903908 7382937#0 7383459#0 7383459#3 7383486 146387544#0 146387544#1 146387544#3 326104011#1 7383488 739784622#0 739784622#1 7383491#0 7383491#1 7383457#2 7383457#4 7383457#5 7383457#6 7383449 707016160 29749817#0 29749817#1 29749817#2 29749817#3 29749817#4 93220776#0 34079950#2 34079950#3 328244230#4 328244230#5" />
    </vehicle>
    <vehicle id="52" depart="52.00">
        <route edges="-7384201#1 -7384201#0 -7384150#1 -118925038#10 -118925038#8 -118925038#6 -118925038#5 -118925038#4 -118925038#3 7383457#2 7383457#4 7383457#5 7383457#6 7383449 707016160 328244233#2 328244233#4 37546755#0 37546755#4 740288269#0 328244227#1 328244227#2 7381366#0 7381366#1 7381366#2 7381366#3 7381366#4 7381366#5 -7381112#6 -7381112#4 -7381112#3 -7381112#2 7381112#2 7381112#3 7381112#4" />
    </vehicle>
    <vehicle id="53" depart="53.00">
        <route edges="-640548019#0 7383233#0 7383233#1 46590526 27379402#2 -7383022#12 7383022#12 7383022#13 -27379402#0 -7383233#1 -7383233#0 640548019#0 640548019#2 856512473#0 -35937897#1 -35937897#0 -35937898#1 -35937898#0 -7383078#2 -7383078#1 -7383078#0 7383078#0 7383078#1 7383078#2 1436127903" />
    </vehicle>
    <vehicle id="54" depart="54.00">
        <route edges="160237515#7 160237515#8 7383449 707016160 29749817#0 29749817#1 29749817#2 29749817#3 29749817#4 93220776#0 34079950#2 34079950#3 34079950#6 386883300#1 707009892 156436573#0 156436573#1 156436573#2 156436571#0 7385015#1 7384967#1 7384967#2 7385049#1 7385064#5 7385064#6 7384932#0 7384932#1 7384932#2 7384932#4 7384932#5 7385032#0 7385032#1" />
    </vehicle>
    <vehicle id="55" depart="55.00">
        <route edges="7384453#0 7384453#1 7384309#6 7384309#7 7384309#8 7384288 160237536#8 160237536#9 160237536#10 160237536#11 160237536#12 190590623#1 443156104 326103991#2 327373697 443156105 7384405#0 7384405#1 7384405#2 7384405#3 7384405#4 -7383304#3 -7384201#2 -7384201#1" />
    </vehicle>
    <vehicle id="56" depart="56.00">
        <route edges="27718618#1 1095951055#0 511452724#4 511452724#5 37546755#4 740288269#0 328244226#1 328244226#4 328244226#5 25221021#1 290733544 7383221#1 7383221#2 7383221#3 7383221#4 -7383096#5 -7383096#3 -7383096#1 -7383096#0" />
    </vehicle>
    <vehicle id="57" depart="57.00">
        <route edges="7384886#4 7384872 -402936557#3 -402936557#2 -402936557#1 -7384912#1 17262160#2 47454645#0 47454645#2 29749956#1 29749956#2 707016158 324205830#0 324205830#1 324205830#3 375495397#0 118925038#2 118925038#4 118925038#5 118925038#6 118925038#8 118925038#10 118925038#11 118925038#12 118903564 327373697 27318751 -7384167#2 -7384167#1 -7384167#0 -27268752#2 -27268752#0 -7384323#2 -7384323#1 -7384144#6 -7384144#5 -7384144#4 -7384144#2 -7384144#0 -7384441#2 -7384441#1 -7384443#1 -7384443#0 -7384447#0 7384441#0" />
    </vehicle>
    <vehicle id="58" depart="58.00">
        <route edges="-7384408 7384405#4 -7383304#3 -7384201#2 -7384201#1 -7384201#0 -7384150#1 -118925038#10 -118925038#8 -118925038#6 -118925038#5 -118925038#4 -118925038#3 7383457#2 7383457#4 7383457#5 7383457#6 7383449 707016160 29749817#0 29749817#1 29749817#2 29749817#3 29749817#4 93220776#0 407033673#1 407033673#2 707009260#0 407033658 799454731#0 799454731#1 29294263 680303812 680303811 707009268#0 707009268#1 707009268#2 739791356 29294360#1 739791355 707002641 707002642 -707000452 -32011213#3 -32011213#2 -144377976#3 -144377976#2 -144377976#1 -144377976#0 7381081#0 7381081#1 7381081#2 7381081#3" />
    </vehicle>
    <vehicle id="59" depart="59.00">
        <route edges="680090994 7381627 1270857690 680090992 32011082#0 7381628 1270857691#0 706997155 7381727 7381817 38245925 491573232 1269325984 776820734 7382996#0 7382999#0 7382942 25913377 7382945 7382921 7382920#0 7382920#2 326594002#0 326594002#1 7382870#9 7382870#10 7382870#11 7382870#0 7382870#1 7382870#2 7382870#3 7382870#4 7382870#5 -7382862#13" />
    </vehicle>
    <vehicle id="60" depart="60.00">
        <route edges="7383272#0 7383272#1 -7383272#1 -7383272#0 -7383346#0 -326103965#3 7383411#1 7383411#2 739784622#0 739784622#1 7383491#0 7383491#1 7383457#2 7383457#4 7383457#5 7383457#6 7383449 707016160 29749817#0 29749817#1 29749817#2 29749817#3 29749817#4 93220776#0 34079950#2 34079950#3 34079950#6 386883300#1 707009892 -156436572 -330165528#2 -330165528#1 -330165528#0 330165528#0 330165528#1" />
    </vehicle>
    <vehicle id="61" depart="61.00">
        <route edges="7383344 -444149538#1 -444149538#0 -7383441#5 -7383441#4 -7383441#3 -7383441#2 -7383441#1 -7383441#0 7383301#13 7383301#14 326103965#2 326103965#4 326103965#5" />
    </vehicle>
    <vehicle id="63" depart="63.00">
        <route edges="-144377976#2 -144377976#1 -144377976#0 7381081#0 7381081#1 7381081#2 7381081#3 7381081#4 -7381081#4 -7381081#3 -7381081#2 -7381081#1 -7381081#0 144377976#0 144377976#1 144377976#2 144377976#3 32011213#2 32011213#3 32011213#5 32011213#6 707000455#1 -707000453 7385092 7385089 739791357 7385162#0 7385162#1 707002636#0 707009270 407033663#0 407033663#2 707009269 707009271 707009273 707009272 235197282#0 235197282#2 707009263 990055230 799454732#0 799454732#1 707009261#0 34079950#2 34079950#3 34079950#6 386883300#1 707009892 156436573#0 156436573#1 156436573#2 156436571#0 7385015#1 7384967#1 7384967#2 7384967#4 561278603#0 561278603#1 7385062#0 7385062#1 7385062#2 7385062#3 7384938#0" />
    </vehicle>
    <vehicle id="64" depart="64.00">
        <route edges="7384455#1 7384455#2 7384144#4 7384144#5 7384144#6 7384323#1 7384323#2 37553296 27268752#2 7384167#0 7384203#1" />
    </vehicle>
    <vehicle id="65" depart="65.00">
        <route edges="-7384447#1 7384443#0 7384443#1 7384441#1 7384441#2 7384144#0 7384144#2 7384144#4 7384144#5 7384144#6 7384323#1 7384323#2 37553296 27268752#2 7384167#0 7384167#1 7384167#2 326103991#0 326103991#1 326103991#2 -118903564 -118925038#12 -118925038#11 -118925038#10 -118925038#8 -118925038#6 -118925038#5 -118925038#4 -118925038#3 7383457#2 7383457#4 7383457#5 7383457#6 7383449 707016160 328244233#2 328244233#4 37546755#0 37546755#4 740288269#0 7381420#4 25733984 7382845#0 7382845#1 -30365461#2 -30365461#1 -30025947#4 -30025947#3 -30025947#2" />
    </vehicle>
    <vehicle id="66" depart="66.00">
        <route edges="7384454#2 7384122#1 7384144#6 7384323#1 7384323#2 37553296 27268752#2 7384167#0 7384167#1 7384167#2 326103991#0 326103991#1 326103991#2 -118903564 -118925038#12 -118925038#11 -118925038#10 -118925038#8 -118925038#6 -118925038#5 -118925038#4 -118925038#3 7383457#2 7383457#4 7383457#5 7383457#6 7383449 707016160 29749817#0 29749817#1 29749817#2 29749817#3 29749817#4 93220776#0 34079950#2 34079950#3 34079950#6 386883300#1 707009892 156436573#0 156436573#1 156436573#2 156436571#0 7385015#1 7385015#4 7385015#7 7385015#10 7384934#1 7384934#2 7385027#2" />
    </vehicle>
    <vehicle id="67" depart="67.00">
        <route edges="-426530259#0 -511453532#2 -511453532#1 7384859#0 7384859#1 511452725#0 511452725#1 511452725#2 1149134109#3 1149134109#4 -1149134108#3 -1149134108#2 -1149134108#0 -7384648#0 224458064#0 224458064#1 224458064#2 224458064#3 224458064#4" />
    </vehicle>
    <vehicle id="68" depart="68.00">
        <route edges="-32011213#1 32011213#1 32011213#2 32011213#3 32011213#5 32011213#6 707000455#1 -707000453 7385092 7385089 739791357 7385162#0 7385162#1 707002636#0 707009270 407033663#0 407033663#2 707009269 707009271 707009273 707009272 235197282#0 235197282#2 707009263 990055230 799454732#0 799454732#1 707009261#0 7385159#1 431018817 17262160#0 17262160#1 17262160#2 47454645#0 47454645#2 29749956#1 29749956#2 707016158 324205830#0 324205830#1 324205830#3 375495397#0 7383022#1 7383022#4 7383022#5 7383022#6 7383022#7 7383022#8 7383040#1 7383040#2 7383259#3 7383259#4" />
    </vehicle>
    <vehicle id="69" depart="69.00">
        <route edges="7383287 7383301#11 7383301#13 7383301#14 7383411#1 7383411#2 739784622#0 739784622#1 7383491#0 7383491#1 7383457#2 7383457#4 7383457#5 7383457#6 7383449 707016160 328244233#2 328244233#4 37546755#0 7384949#0 7384949#1 7384949#3 7384987#0 7384987#1 7384987#2 511453532#1 511453532#2 426530259#0 426530259#1 -7381461#3" />
    </vehicle>
    <vehicle id="70" depart="70.00">
        <route edges="190590640#6 190590640#7 190590640#8 -482997282#6 -482997282#5 -482997282#4 -482997282#3 -482997282#1 7383449 707016160 29749817#0 29749817#1 29749817#2 29749817#3 29749817#4 93220776#0 34079950#2 34079950#3 34079950#6 386883300#1 707009892 -156436572 7385054#5 386883299#0" />
    </vehicle>
    <vehicle id="71" depart="71.00">
        <route edges="-7384198#0 -7384405#0 -443156105 27318751 -7384167#2 -7384167#1 -7384167#0 -27268752#2 -27268752#0 -7384323#2 -7384323#1 -7384144#6 -7384144#5 -7384144#4 -7384144#2 -7384144#0 -7384441#2 -7384441#1 -7384443#1 -7384443#0 7384443#0 7384443#1" />
    </vehicle>
    <vehicle id="73" depart="73.00">
        <route edges="375495397#0 7383457#2 7383457#4 7383094#0 7383094#1 7383094#2 7383094#3" />
    </vehicle>
    <vehicle id="74" depart="74.00">