<routes>
  <vType id="bg_car" vClass="passenger" accel="2.6" decel="4.5" tau="0.7" minGap="0.5" sigma="0.8"/>
  <vehicle id="veh_2514" type="bg_car" depart="0" departPos="random_free" departLane="best">
    <route edges="27858642#0 -27858642#0 124048539#3 124048539#4 27858631#2 27858631#3 27858631#4 -27858620#0 27858717 308810203#0 308810203#1 308810203#2 308810203#3 190062922 101600495#0 101600495#1 27858698#1 101603970#0 101603970#1 101603970#2 24040413#0 24040413#1 137389782#2 137389782#3 102613772#0 22989445#0 22989445#2 22989445#6 22989445#7 22989445#9 22989445#10 185130650 22989460 29249470#0 185130664 36905835#0 185130648#0 185130648#1 -185130641 -183567731#1 -183567731#0 27896782#1"/>
  </vehicle>
  <vehicle id="veh_87" type="bg_car" depart="1" departPos="random_free" departLane="best">
    <route edges="1393670544 1393673436 164752117#0 164752117#1 145203690 77169013#0 77169013#1 122371536 112071170 1314471852 121904078#0 121904078#1 121904078#2 121904078#3 121904078#4 121904078#5 137389782#0 137389782#2 137389782#3 22989438#2 121904079#0 121904079#1 184688752 24040425 -48135109#11 -48135109#10 -48135109#8 -48135109#7 -48135109#6 30694699#1 30694699#2"/>
  </vehicle>
  <vehicle id="veh_1585" type="bg_car" depart="2" departPos="random_free" departLane="best">
    <route edges="-24040413#0 27856873#0 27858610#0 27858610#1 27858610#2 27858610#3 27858610#4 27858610#5 211668737#0 211668737#1 211668737#2 211668737#3"/>
  </vehicle>
  <vehicle id="veh_933" type="bg_car" depart="3" departPos="random_free" departLane="best">
    <route edges="134396109 24040408#0 24040408#1 210593672#1 210593672#3 210593672#4 77169005 1314471854 112071170 1314471852 121904078#0 121904078#1 121904078#2 121904078#3 121904078#4 121904078#5 137389782#0 137389782#2 137389782#3 102613772#0 137389781#1 137389781#2 210593024#0 210593024#1 210593024#2 210593024#3 122371524#1 247990380#0 -212079305#1 -997238473#1 -997238473#0"/>
  </vehicle>
  <vehicle id="veh_1763" type="bg_car" depart="5" departPos="random_free" departLane="best">
    <route edges="-179456734#1 -179456734#0 -36905893#1 185130664 36905835#0 29249501#0 29249501#1 29249501#2 36906095#0 36906094#1 36906094#2 36906094#4 36906094#5 36906094#6 36906094#7 22989439#1 121904079#0 121904079#1 48135125 184688753#0 184688753#1"/>
  </vehicle>
  <vehicle id="veh_883" type="bg_car" depart="7" departPos="random_free" departLane="best">
    <route edges="27923173#2 -133369680 27923176 -27875962#1 122647358#4 122647358#5 27466816 972609823 -236738478#7 -236738478#6 -236738478#5 -236738478#4 -236738478#2 -236738478#1 -27466771#3 -27466771#2 -39033116 80836812#1 80836812#2 1417061152#1 1417061152#2 1417061152#3 80836809#1 80836809#2 80836809#3 27410609#1 60254750#0"/>
  </vehicle>
  <vehicle id="veh_37" type="bg_car" depart="8" departPos="random_free" departLane="best">
    <route edges="60254750#1 48135106#4 48135106#5 48135106#6 155876891#1 -185130640#1 -185130640#0 -24202532#2 -24202532#1 -24202532#0 51167960#0 51167960#1 51167960#2 51167960#3 1417061153 27410627#0 27410627#1 27410627#2 27410627#3 27410627#4 24039913#1 24039913#2 24039913#3 24039913#4 24039913#5 27875274#1 105003369 27875293 27467278#0 27467278#1 27467278#2 27467278#3 27467278#4 27467278#5 27467278#6 27875219#0 27875219#1 27875219#2"/>
  </vehicle>
  <vehicle id="veh_2542" type="bg_car" depart="9" departPos="random_free" departLane="best">
    <route edges="122106667#0 122106668#1 210593671#0 210593672#1 210593672#3 210593672#4 77169005 1314471854 112071170 1314471852 121904078#0 121904078#1 121904078#2 121904078#3 121904078#4 121904078#5 137389782#0 137389782#2 137389782#3 22989438#2 121904079#0 121904079#1 184688752 22989418 232427895 185130698 27466927#0 27466927#1 185130663#0 185130663#1 185130663#2 185130663#3 185130663#6 185130663#9 185130663#10 185130663#11 150755355#0 150755355#1 217584328#0 217584328#1 -217584328#1 -217584328#0 -150755355#1"/>
  </vehicle>
  <vehicle id="veh_2568" type="bg_car" depart="9" departPos="random_free" departLane="best">
    <route edges="24039913#3 24039913#4 24039913#5 24039913#6 24039913#7 27410678#0 27466999#1 27466999#2 27466999#3 27466999#4 27466999#5 105003377 105003390#0 105003387 105003389#0 105003389#1 105003389#2 27875783#0 27875783#1 27875783#3 27875783#4 27875783#5 27875783#6 189740279#1 189740279#2 189740279#3 189740279#4 184688753#0 184688753#1 184688753#2 184688753#3 137389783#2 137389783#3 137389783#4 137389783#5 137389784#2 137389784#3 137389784#5 77168989 122371536 112071150 33680793#0 33680793#1 33680793#2 33680793#4 122106667#0 122106668#1 210593671#0 210593672#1 33680795#0 33680795#1"/>
  </vehicle>
  <vehicle id="veh_534" type="bg_car" depart="10" departPos="random_free" departLane="best">
    <route edges="185130684#4 185130684#6 185130684#7 185130684#8 185130684#10 185130684#11 185130684#14 185130684#15 185130684#18 27466908#0 27466908#1 -236738478#5 -236738478#4 -236738478#2 -236738478#1 -27466771#3 -27466771#2 -39033116 27466766#1 27466766#2 1363802844#1 24202544#0 24202544#1 1363299504 48135032#2 48135032#3 48135032#4 48135032#5 48135032#6 1417061153 24202532#0 24202532#1 24202532#2 185130640#0 185130640#1 155876890#0 217582008#0 217582008#1 1416607629 1416607627#0 1416607627#1 1416607627#2 1416607627#3 1416607627#4 80836810 27361213#1 27361213#2 1264121828#1 -27361235#0 27361232#3"/>
  </vehicle>
  <vehicle id="veh_2804" type="bg_car" depart="10" departPos="random_free" departLane="best">
    <route edges="77168989 121904082 77168987#0 -77168987#3"/>
  </vehicle>
  <vehicle id="veh_2533" type="bg_car" depart="11" departPos="random_free" departLane="best">
    <route edges="-27466771#2 39033118#1 39033118#4 27856730#1 236738476#0 236738476#4 236738476#5 236738476#8 236738476#9 27875781#1 27875783#0 27875783#1 27875783#3 27875783#4 27875783#5 27875783#6 189740279#1 189740279#2 189740279#3 189740279#4 184688753#0 184688753#1 184688753#2 184688753#3 137389783#2 137389783#3 137389783#4 137389783#5 137389784#2 137389784#3 137389784#5"/>
  </vehicle>
  <vehicle id="veh_2550" type="bg_car" depart="12" departPos="random_free" departLane="best">
    <route edges="122755759#1 122755759#2 122755759#3 150755354#1 145203694 1393670544 1393673436 164752117#0 164752117#1 145203690 77169013#0 77169013#1 122371536 112071170 1314471852 121904078#0 121904078#1 121904078#2 121904078#3 121904078#4 121904078#5 137389782#0 137389782#2 137389782#3 22989438#2 121904079#0 121904079#1 184688752 22989418 232427895 185130698 27466927#0 27466927#1 185130663#0 185130663#1 185130663#2 185130663#3 185130663#6 185130663#9 30694792#0 30694792#1 30694792#2 27467278#2 27467278#3 27467278#4 27467278#5"/>
  </vehicle>
  <vehicle id="veh_879" type="bg_car" depart="13" departPos="random_free" departLane="best">
    <route edges="129221900#1 129221900#2 129221900#4 129221900#5 185130666 -121996233#1 -121996233#0 33207957 27875966 123914557#0 123914557#1 123914557#3 123914557#4 123914557#5 185130632#0 185130632#1 -121997934 -185130633#1 -185130633#0 122371526#0 122371526#1 122371526#2 122371526#3 122371526#4 22989445#0 22989445#2 22989445#6 22989445#7 22989445#9 22989445#10 185130650 22989460 29249470#0 -96898351#2 -96898351#1 -96898361#1 -96898361#0 -185130639#4 -185130639#3 -185130639#2 -185130639#1 185130639#1"/>
  </vehicle>
  <vehicle id="veh_2616" type="bg_car" depart="14" departPos="random_free" departLane="best">
    <route edges="-33206644#3 -33206644#2 -33206644#1 -33206644#0 121997934 1274282363 27875967#0 27875967#1 27875967#3 33207469"/>
  </vehicle>
  <vehicle id="veh_1976" type="bg_car" depart="15" departPos="random_free" departLane="best">
    <route edges="22989418 232427894 121904080 184688753#0 184688753#1 48135124 121904079#0 121904079#1 184688752 24040425 -48135109#11 -48135109#10 -48135109#8 -48135109#7 -48135109#6 -48135109#4 -48135109#3 -48135109#2 -48135109#1 -48135109#0 1363862064 27874854#1"/>
  </vehicle>
  <vehicle id="veh_2993" type="bg_car" depart="16" departPos="random_free" departLane="best">
    <route edges="1317938952#0 1317938952#1 -1317938953 -164767967 -217584328#1 -217584328#0 -150755355#1 -150755355#0 -185130663#11 -185130663#10 -185130663#9 -185130663#8 -185130663#5 -185130663#2 -185130663#1 -185130663#0 -27466927#1 -27466927#0 22989443 1314375569 121904080 184688753#0 184688753#1 184688753#2 184688753#3 22989445#0 22989445#2 22989445#6 22989445#7 22989445#9 22989445#10 185130650 22989460 29249470#0 -96898351#2 -96898351#1 -96898361#1 -96898361#0 -185130639#4 -185130639#3 -185130639#2 -185130639#1 -185130639#0 33819289#0 33819289#1 -60547263#0 60547259#0"/>
  </vehicle>
  <vehicle id="veh_1222" type="bg_car" depart="17" departPos="random_free" departLane="best">
    <route edges="80836811 121906061#2 -39033116 80836812#1 80836812#2 1417061152#1 1417061152#2 1417061152#3 80836809#1 80836809#2 80836809#3 185130635#0 185130635#1 185130635#2 185130635#3 101600485#0 101600485#1 -217584328#1"/>
  </vehicle>
  <vehicle id="veh_1267" type="bg_car" depart="17" departPos="random_free" departLane="best">
    <route edges="-27923007#1 27923007#1 33208447 27898276#0 27898276#1 27898276#2 27898276#3 27898276#4 121997936#0 121997936#1 27875966 123914557#0 123914557#1 123914557#3 123914557#4 123914557#5 185130632#0 185130632#1 -121997934 -185130633#1 -185130633#0 122371526#0 122371526#1 122371526#2 122371526#3 122371526#4 137389783#2 137389783#3 137389783#4 137389783#5 112071134#1 137389782#0 -24040413#1 -24040413#0 27856873#0 27858610#0 27858610#1 27858610#2 27858610#3 27858610#4 27858610#5 27857472#1 27857472#2 27857472#3 124048539#1 124048539#2 124048539#3 124048539#4 124048539#5"/>
  </vehicle>
  <vehicle id="veh_3219" type="bg_car" depart="18" departPos="random_free" departLane="best">
    <route edges="27858632#0 27858632#1 27858632#2 27858632#3 27858632#4 -27858632#4 -27858632#3 -27858632#2 -27858632#1 -27858632#0 27858593#2 -27858620#1 -27858620#0 27858717 308810203#0 308810203#1 308810203#2 308810203#3 190062922 101600495#0 101600495#1 27858698#1 101603970#0 101603970#1 101603970#2 24040413#0 24040413#1 137389782#2 137389782#3 102613772#0 137389781#1 137389781#2 -27875956#2 -27875956#0 189740278 27875768#0 27875846#1 27875855#1"/>
  </vehicle>
  <vehicle id="veh_3262" type="bg_car" depart="20" departPos="random_free" departLane="best">
    <route edges="27875976#1 27875976#4 27875960#2 33206649#1 33206649#2 236738476#16 27875982#1 247990381#0 27875783#3 27875783#4 27875783#5 27875783#6 189740279#1 189740279#2 189740279#3 189740279#4 184688753#0 184688753#1 48135124 121904079#0 121904079#1 184688752 22989418 232427895 185130698 27466927#0 27466927#1 185130663#0 185130663#1 -185130663#1 -185130663#0"/>
  </vehicle>
  <vehicle id="veh_2787" type="bg_car" depart="22" departPos="random_free" departLane="best">
    <route edges="27875989#0 -27875989#0 212079234#4 212079234#5 27466810#4 27466810#5"/>
  </vehicle>
  <vehicle id="veh_78" type="bg_car" depart="24" departPos="random_free" departLane="best">
    <route edges="24040408#1 210593672#1 210593672#3 210593672#4 77169005 1314471854 112071170 1314471852 121904078#0 121904078#1 121904078#2 121904078#3 121904078#4 121904078#5 137389782#0 137389782#2 137389782#3 102613772#0 137389781#1 137389781#2 210593024#0 210593024#1 210593024#2 210593024#3 122371524#1 247990380#0 -212079305#1 212079239 212079234#0 212079234#1 212079234#2 212079234#4 212079234#5 -27466810#3 -27466810#2 -27466810#1 -27466810#0 27466816 972609823 122647358#0 122647358#1 972609617#0 972609617#1 27466842#0 27466842#1 185130684#14"/>
  </vehicle>
  <vehicle id="veh_2803" type="bg_car" depart="24" departPos="random_free" departLane="best">
    <route edges="27858698#1 101603970#0 101603970#1 101603970#2 24040413#0 24040413#1 137389782#2 137389782#3 102613772#0 22989445#0 22989445#2 22989445#6 22989445#7 22989445#9 22989445#10 22989465#0 22989465#0-AddedOffRampEdge 22989465#1 1335584274#1 202564591#0 202564591#1 202564591#2 202564591#3 96898363#0 96898363#1 96898362#0 96898362#1 27922707#0 27922707#1 27922707#2 27922707#3 27922707#4 190502835#2 190502835#5"/>
  </vehicle>
  <vehicle id="veh_3093" type="bg_car" depart="24" departPos="random_free" departLane="best">
    <route edges="-212079234#5 -212079234#4 -212079234#2 -212079234#1 -212079234#0 -212079239 212079305#0 27875781#1 27875783#0 27875783#1 27875783#3 27875783#4 27875783#5 27875783#6 189740279#1 189740279#2 189740279#3 189740279#4 184688753#0 184688753#1 184688753#2 184688753#3 137389783#2 137389783#3 137389783#4 137389783#5 137389784#2 137389784#3 137389784#5 77168989 -77169013#1 -77169013#0 77169013#0"/>
  </vehicle>
  <vehicle id="veh_331" type="bg_car" depart="27" departPos="random_free" departLane="best">
    <route edges="681406193 -681406193 -27922802#1 164699212 212079294#0 212079294#1 168856392#0 168856392#1 168856392#2 29249501#0 29249501#1 29249501#2 36906095#0 36906094#1 36906094#2 36906094#4 36906094#5 36906094#6 36906094#7 22989439#1 121904079#0 121904079#1 184688752 22989418 232427895 185130698 27466927#0 27466927#1 185130663#0 185130663#1 185130663#2 185130663#3 185130663#6 185130663#9 185130663#10 185130663#11 150755355#0 150755355#1 217584328#0 217584328#1 101600474 101600485#0 101600485#1"/>
  </vehicle>
  <vehicle id="veh_1371" type="bg_car" depart="27" departPos="random_free" departLane="best">
    <route edges="27858610#0 27857010 101603970#2 24040413#0 24040413#1 137389782#2 137389782#3 22989438#2 121904079#0 121904079#1 184688752 22989418 232427895 185130698 27466927#0 27466927#1 185130663#0 185130663#1 185130663#2 185130663#3 185130663#6 185130663#9 185130663#10 185130663#11 1360110035 52026774 1317938952#0 1317938952#1 27858586#0 27858586#1 164767969#0 -164767969#0"/>
  </vehicle>
  <vehicle id="veh_1455" type="bg_car" depart="27" departPos="random_free" departLane="best">
    <route edges="211668737#0 211668737#1 211668737#2 211668737#3 69716268 308810203#0 308810203#1 308810203#2 308810203#3 190062922 101600495#0 101600495#1 27858698#1 101603970#0 101603970#1 101603970#2 24040413#0 24040413#1 137389782#2 137389782#3 102613772#0 137389781#1 137389781#2 -27875956#2 27875956#2"/>
  </vehicle>
  <vehicle id="veh_1920" type="bg_car" depart="30" departPos="random_free" departLane="best">
    <route edges="27922802#1 -27922802#1 164699212 212079294#0 212079294#1 168856392#0 168856392#1 168856392#2 22989486#5 1335584274#1 202564591#0 202564591#1 202564591#2 202564591#3 96898363#0 96898363#1 96898363#2 1393404348#0 96898357#3 96898357#4 1393404348#3 -33206644#6"/>
  </vehicle>
  <vehicle id="veh_2554" type="bg_car" depart="34" departPos="random_free" departLane="best">
    <route edges="112071189#0 137389784#2 137389784#3 137389784#5 77168989 122371536 112071170 1314471852 121904078#0 121904078#1 121904078#2 121904078#3 121904078#4 121904078#5 137389782#0 137389782#2 137389782#3 102613772#0 137389781#1 137389781#2 210593024#0 210593024#1 210593024#2 210593024#3 185130633#0 185130633#1 121997934 1274282363 27875967#0 27875967#1 27875967#3 27875967#4 27875967#6 1274282970"/>
  </vehicle>
  <vehicle id="veh_589" type="bg_car" depart="35" departPos="random_free" departLane="best">
    <route edges="236738476#16 122371526#0 122371526#1 122371526#2 122371526#3 122371526#4 22989445#0 22989445#2 22989445#6 22989445#7 22989445#9 22989445#10 22989465#0 22989465#0-AddedOffRampEdge 22989465#1 1335584274#1 202564591#0 202564591#1 202564591#2 202564591#3 96898363#0 96898363#1 96898362#0 96898362#1 96898358#3 185130643#0 185130643#1 168856392#0 168856392#1 29249407#0 29249407#1 -27897690#0 27897690#0"/>
  </vehicle>
  <vehicle id="veh_2632" type="bg_car" depart="35" departPos="random_free" departLane="best">
    <route edges="27875274#1 105003369 27875293 -1363848201#2 27410678#0 27467133#1 27467133#2 212505274#0 212505274#1 27466769#0 27466769#2 27466769#4 39033116 27466771#1 27466771#3 236738478#1 236738478#2 236738478#4 236738478#5 -27466908#1"/>
  </vehicle>
  <vehicle id="veh_3073" type="bg_car" depart="35" departPos="random_free" departLane="best">
    <route edges="27465232#3 27465232#4 27466952#2 -27858586#1 -27858586#0 -1317938953 -164767967 -217584328#1 -217584328#0 -150755355#1 -150755355#0 -185130663#11 -185130663#10 -185130663#9 -185130663#8 -185130663#5 -185130663#2 -185130663#1 -185130663#0 -27466927#1 -27466927#0 22989443 1314375569 121904080 184688753#0 184688753#1 184688753#2 184688753#3 22989445#0 22989445#2 27898162#1 27898162#2 27898227#0 27898227#1 36906093#3 102613775#2"/>
  </vehicle>
  <vehicle id="veh_3199" type="bg_car" depart="36" departPos="random_free" departLane="best">
    <route edges="-164767969#0 -27858586#1 -27858586#0 -1317938953 -164767967 -217584328#1 -217584328#0 -150755355#1 -150755355#0 -185130663#11 -185130663#10 -185130663#9 -185130663#8 -185130663#5 -185130663#2 -185130663#1 -185130663#0 -27466927#1 -27466927#0 22989443 1314375569 121904080 184688753#0 184688753#1 184688753#2 184688753#3 137389783#2 137389783#3 137389783#4 137389783#5 112071134#1 137389782#0 -24040413#1 -24040413#0 27856873#0 27858610#0 27858610#1 27858610#2 27858610#3 27858610#4 27858610#5 211668737#0 211668737#1 211668737#2 211668737#3 308810202 27858599#0 -27858633#1 27858631#4"/>
  </vehicle>
  <vehicle id="veh_2292" type="bg_car" depart="38" departPos="random_free" departLane="best">
    <route edges="27875982#1 247990381#0 27875783#3 27875783#4 27875783#5 27875783#6 189740279#1 189740279#2 189740279#3 189740279#4 184688753#0 184688753#1 184688753#2 184688753#3 22989445#0 22989445#2 22989445#6 22989445#7 22989445#9 22989445#10 185130650 22989460 29249470#0 185130664 36905835#0 185130648#0 185130648#1 -185130641 -183567731#1 -183567731#0 27896782#1"/>
  </vehicle>
  <vehicle id="veh_464" type="bg_car" depart="39" departPos="random_free" departLane="best">
    <route edges="27875219#2 27875219#3 150755355#1 217584328#0 217584328#1 101600474 -185130635#3 -185130635#2 -185130635#1 -185130635#0 27410609#1 -155876896#2 -155876896#1 -155876896#0 155876906 -24202532#2 -24202532#1"/>
  </vehicle>
  <vehicle id="veh_2893" type="bg_car" depart="39" departPos="random_free" departLane="best">
    <route edges="1363351679#3 27466769#0 33205810#0 27466914#1 27466914#2 27466914#3 27466914#4 27466914#5 27466914#6 27875998 27875999 236738478#7 122647358#0 122647358#1 972609617#0 972609617#1 27466842#0 27923238"/>
  </vehicle>
  <vehicle id="veh_3145" type="bg_car" depart="39" departPos="random_free" departLane="best">
    <route edges="105003392#2 27875293 27467278#0 27467278#1 27467278#2 27467278#3 27467278#4 27467278#5 27467278#6 27875219#0 27875219#1 27875219#2 27875219#3 -150755355#0 -185130663#11 -185130663#10 -185130663#9 -185130663#8 -185130663#5 -185130663#2 -185130663#1 -185130663#0 -27466927#1 -27466927#0 22989443 1314375569 121904080 184688753#0 184688753#1 184688753#2 184688753#3 22989445#0 22989445#2 36906094#4 36906094#5 36906094#6"/>
  </vehicle>
  <vehicle id="veh_1537" type="bg_car" depart="40" departPos="random_free" departLane="best">
    <route edges="105003392#2 27875293 27467278#0 27467278#1 27467278#2 27467278#3 27467278#4 27467278#5 27467278#6 27875219#0 27875219#1 27875219#2 27875219#3 -150755355#0 -185130663#11 -185130663#10 -185130663#9 -185130663#8 -185130663#5 -185130663#2 -185130663#1 -185130663#0 -27466927#1 -27466927#0 22989443 1314375569 121904080 184688753#0 184688753#1 184688753#2 184688753#3 137389783#2 137389783#3 137389783#4 137389783#5 112071134#1 137389782#0 -24040413#1 -24040413#0 27856873#0 27858610#0 27858610#1 27858610#2 27858610#3 27858610#4 27858610#5 211668737#0 211668737#1 211668737#2 211668737#3 308810202 27858620#0 27858620#1"/>
  </vehicle>
  <vehicle id="veh_1304" type="bg_car" depart="41" departPos="random_free" departLane="best">
    <route edges="-997238473#0 997238473#0 997238473#1 212079305#0 247990380#3 247990380#4 247990380#6 247990380#7 1363351679#1 1363351679#2 1363351679#3 27466769#0 27466769#2 27466769#4 80836812#1 80836812#2 1417061152#1 1417061152#2 1417061152#3 80836809#1 80836809#2 80836809#3 185130635#0 185130635#1 185130635#2 185130635#3 101600485#0 101600485#1 27467224#1 1317938953 27858586#0 27858586#1 27466952#3 27467200 105003370 24039930#4 24039930#5 24039930#6 24039930#7 24039930#8 24039930#9 210780058#0 210780058#1"/>
  </vehicle>
  <vehicle id="veh_3483" type="bg_car" depart="41" departPos="random_free" departLane="best">
    <route edges="137389784#2 137389784#3 137389784#5 77168989 122371536 112071170 1314471852 121904078#0 121904078#1 121904078#2 121904078#3 121904078#4 121904078#5 137389782#0 137389782#2 137389782#3 22989438#2 121904079#0 121904079#1 48135125 184688753#0"/>
  </vehicle>
  <vehicle id="veh_1568" type="bg_car" depart="42" departPos="random_free" departLane="best">
    <route edges="236768375#0 -155876896#1 -155876896#0 155876906 -24202532#2 -24202532#1 -24202532#0 51167960#0 51167960#1 51167960#2 51167960#3 1417061153 27410627#0 27410627#1 27410627#2 27410627#3 27410627#4 80836809#1 80836809#2 80836809#3 185130635#0 185130635#1 185130635#2 185130635#3 101600485#0 101600485#1 -217584328#1 -217584328#0 -150755355#1 -150755355#0 -185130663#11 -185130663#10 -185130663#9 -185130663#8 -185130663#5 -185130663#2 -185130663#1 -185130663#0 -27466927#1 -27466927#0 22989443 1314375569 121904080 184688753#0 184688753#1 184688753#2 184688753#3 137389783#2 137389783#3 137389783#4 137389783#5 112071134#1 137389782#0 -24040413#1 -24040413#0 27856873#0 27858610#0 27858610#1 27858610#2 27858610#3 27858610#4 27858610#5 211668737#0 211668737#1 211668737#2 211668737#3 308810202 27858620#0 27858620#1 -27858593#2 27858632#0 27858632#1"/>
  </vehicle>
  <vehicle id="veh_1682" type="bg_car" depart="43" departPos="random_free" departLane="best">
    <route edges="-101600456#0 101600456#0 101600456#1 33208444 27898276#4 121997936#0 121997936#1 27875966 123914557#0 123914557#1 123914557#3 123914557#4 123914557#5 185130632#0 185130632#1 -121997934 -185130633#1 -185130633#0 122371526#0 122371526#1 122371526#2 122371526#3 122371526#4 22989445#0 22989445#2 22989445#6 22989445#7 22989445#9 22989445#10 185130650 22989460 29249470#0 -96898351#2 -96898351#1 -96898361#1 -96898361#0 36906092#0 36906092#1 36911899#2 36911899#3 96898361#0 96898361#1"/>
  </vehicle>
  <vehicle id="veh_1182" type="bg_car" depart="44" departPos="random_free" departLane="best">
    <route edges="24040408#1 210593672#1 210593672#3 210593672#4 77169005 1314471854 112071170 1314471852 121904078#0 121904078#1 121904078#2 121904078#3 121904078#4 121904078#5 137389782#0 137389782#2 137389782#3 22989438#2 121904079#0 121904079#1 184688752 22989418 232427895 185130698 27466927#0 27466927#1 185130663#0 185130663#1 185130663#2 185130663#3 185130663#6 185130663#9 185130663#10 185130663#11 150755355#0 150755355#1 217584328#0 217584328#1 48135106#1 48135106#2 48135106#3 48135106#4 48135106#5 48135106#6 217582008#0 217582008#1 1416607629 1416607627#0 1416607627#1 1416607627#2 1416607627#3 35883570#0 35883570#1 35883570#2 24202557#0 24202557#1 -24202557#1"/>
  </vehicle>
  <vehicle id="veh_1842" type="bg_car" depart="44" departPos="random_free" departLane="best">
    <route edges="-48135032#2 48135032#2 48135032#3 48135032#4 48135032#5 48135032#6 1417061153 24202532#0 24202532#1 24202532#2 185130640#0 185130640#1 155876890#0 -217582012#3"/>
  </vehicle>
  <vehicle id="veh_2631" type="bg_car" depart="45" departPos="random_free" departLane="best">
    <route edges="185130684#18 27466908#0 27466908#1 27876001 27466914#5 198921691 27875958#1 27875987#1 236738476#5 236738476#8 236738476#9 27875781#1 27875783#0 27875783#1 27875783#3 27875783#4 27875783#5 27875783#6 189740279#1 189740279#2 189740279#3 189740279#4 184688753#0 184688753#1 184688753#2 184688753#3 22989445#0 22989445#2 22989445#6 22989445#7 22989445#9 22989445#10 185130650 22989460 29249470#0 185130664 36905835#0 185130648#0 185130648#1 -185130641 185130641"/>
  </vehicle>
  <vehicle id="veh_457" type="bg_car" depart="46" departPos="random_free" departLane="best">
    <route edges="27410627#0 27410627#1 27410627#2 27410627#3 27410627#4 -1417061152#3 -1417061152#2 -1417061152#1 217584327#0 39033116 27466771#1 27466771#3 236738478#1 236738478#2 236738478#4 236738478#5 236738478#6 236738478#7 122647358#0 122647358#1 972609617#0 972609617#1 27923173#0 27923173#2 -133369680"/>
  </vehicle>
  <vehicle id="veh_1997" type="bg_car" depart="46" departPos="random_free" departLane="best">
    <route edges="129221900#2 129221900#4 129221900#5 -27466810#6 -27466810#5 -27466810#4 -212079234#5 -212079234#4 -212079234#2 -212079234#1 -212079234#0 -212079239 212079305#0 247990380#3 247990380#4 247990380#6 247990380#7 1363351679#1 1363351679#2 1363351679#3 27466769#0 27466769#2 27466769#4 27466766#1 27466766#2 1363802844#1 24202544#0 24202544#1 1363299504 48135032#2 48135032#3 48135032#4 48135032#5 48135032#6 1417061153 24202532#0 24202532#1 24202532#2 185130640#0 185130640#1 155876890#0 -217582012#3 -217582012#2 -217582012#1 -217582012#0 -24202567#1 -24202567#0"/>
  </vehicle>
  <vehicle id="veh_1077" type="bg_car" depart="47" departPos="random_free" departLane="best">
    <route edges="-185130663#1 -185130663#0 -27466927#1 -27466927#0 22989443 1314375569 121904080 184688753#0 184688753#1 184688753#2 184688753#3 137389783#2 137389783#3 137389783#4 137389783#5 137389784#2 137389784#3 137389784#5 77168989 -77169013#1 -77169013#0 122755759#0 122755759#1 122755759#2 122755759#3 150755354#1"/>
  </vehicle>
  <vehicle id="veh_3031" type="bg_car" depart="47" departPos="random_free" departLane="best">
    <route edges="27410202#0 27410627#4 80836809#1 80836809#2 80836809#3 185130635#0 185130635#1 185130635#2 185130635#3 101600485#0 101600485#1 27467224#1 1317938953 27858586#0 27858586#1 27466952#3 27467200 105003370 24039930#4 24039930#5 24039930#6 30694584 210780058#2 200512026"/>
  </vehicle>
  <vehicle id="veh_2931" type="bg_car" depart="48" departPos="random_free" departLane="best">
    <route edges="105331879 210780058#1 30694736 -30694699#1 48135109#6 27467062#1 185130663#6 185130663#9 185130663#10 207814835 105003384 27875219#3"/>
  </vehicle>
  <vehicle id="veh_889" type="bg_car" depart="49" departPos="random_free" departLane="best">
    <route edges="27858592#1 27858592#2 124048539#6 124048544#0 -27806908#4 -27806908#3 -27806908#2 -27806908#1 -27806908#0 27806908#0 27806908#1 27806908#2 27806908#3 27806908#4"/>
  </vehicle>
  <vehicle id="veh_185" type="bg_car" depart="50" departPos="random_free" departLane="best">
    <route edges="-33680795#1 -33680795#0 210593672#3 210593672#4 77169005 1314471854 112071170 1314471852 121904078#0 121904078#1 121904078#2 121904078#3 121904078#4 121904078#5 137389782#0 137389782#2 137389782#3 22989438#2 121904079#0 121904079#1 184688752 22989418 232427895 185130698 27466927#0 27466927#1 185130663#0 185130663#1 185130663#2 185130663#3 185130663#6 185130663#9 30694792#0 30694792#1 30694792#2 27467278#2 105003392#0 105003392#1 105003392#2 27875293 -1363848201#2 27410678#0 27467133#1 27467133#2 212505274#0 212505274#1 27466769#0 27466769#2 27466769#4 27466766#1 27466766#2 80836811 -145533538#2 185130684#24 185130684#25 96898370 164767965#1 80836807"/>
  </vehicle>
  <vehicle id="veh_593" type="bg_car" depart="51" departPos="random_free" departLane="best">
    <route edges="101600474 -185130635#3 -185130635#2 -185130635#1 -185130635#0 -80836809#3 -80836809#2 -80836809#1 -1417061152#3 -1417061152#2 -1417061152#1 217584327#0 39033116 27466771#1 27466771#3 236738478#1 236738478#2 236738478#4 236738478#5 236738478#6 236738478#7 122647358#0 122647358#1 972609617#0"/>
  </vehicle>
  <vehicle id="veh_686" type="bg_car" depart="52" departPos="random_free" departLane="best">
    <route edges="-183567731#1 -183567731#0 183567731#0 183567731#1 185130641 22989486#0 22989486#1 22989486#5 1335584274#1 202564591#0 202564591#1 202564591#2 202564591#3 96898363#0 96898363#1 96898363#2 1393404348#0 96898357#3 96898357#4 1393404348#3 1393404347#1 1393404342"/>
  </vehicle>
  <vehicle id="veh_3327" type="bg_car" depart="52" departPos="random_free" departLane="best">
    <route edges="-48135032#2 48135032#2 48135032#3 48135032#4 48135032#5 48135032#6 1417061153 27410627#0 27410627#1 27410627#2 27410627#3 27410627#4 -1417061152#3 -1417061152#2 -1417061152#1 217584327#0 39033116 39033118#1 39033118#4 27856730#1 236738476#0 236738476#4 236738476#5 236738476#8 236738476#9 236738476#12 236738476#13 27875976#1 27875976#4 27875976#5 33206637"/>
  </vehicle>
  <vehicle id="veh_2431" type="bg_car" depart="53" departPos="random_free" departLane="best">
    <route edges="185130663#11 -185130663#11 -185130663#10 -185130663#9 -185130663#8 27467063#0 140465640#0 140465640#1 27875956#0 27875968#3 27875968#5 -27875982#2 122371524#1"/>
  </vehicle>
  <vehicle id="veh_143" type="bg_car" depart="55" departPos="random_free" departLane="best">
    <route edges="27858597#2 27858631#1 27858631#2 27858631#3 27858631#4 -27858620#0 27858717 308810203#0 308810203#1 308810203#2 308810203#3 190062922 101600495#0 101600495#1 27858698#1 101603970#0 101603970#1 101603970#2 24040413#0 24040413#1 137389782#2 137389782#3 102613772#0 137389781#1 137389781#2 210593024#0 210593024#1 210593024#2 210593024#3 185130633#0 185130633#1 121997934 1274282363 27875967#0 27875967#1 27875967#3 27875967#4 27875967#6 1274282970"/>
  </vehicle>
  <vehicle id="veh_1132" type="bg_car" depart="55" departPos="random_free" departLane="best">