<?xml version="1.0" encoding="UTF-8"?>

<!-- generated on 2026-04-12 23:17:24.167176 by randomTrips.py UNKNOWN
<configuration>
    <net-file value="network.net.xml"/>
    <route-file value="routes.rou.xml"/>
    <validate value="True"/>
    <end value="1000.0"/>
</configuration>
-->

<!-- generated on 2026-04-12 23:17:24 by Eclipse SUMO duarouter Version 1.18.0
<configuration xmlns:xsi="http://www.w3.org/2001/XMLSchema-instance" xsi:noNamespaceSchemaLocation="http://sumo.dlr.de/xsd/duarouterConfiguration.xsd">

    <input>
        <net-file value="network.net.xml"/>
        <route-files value="trips.trips.xml"/>
    </input>

    <output>
        <output-file value="routes.rou.xml"/>
        <alternatives-output value="NUL"/>
    </output>

    <time>
        <begin value="0"/>
        <end value="1000.0"/>
    </time>

    <report>
        <no-warnings value="true"/>
        <ignore-errors value="true"/>
        <no-step-log value="true"/>
    </report>

</configuration>
-->

<routes xmlns:xsi="http://www.w3.org/2001/XMLSchema-instance" xsi:noNamespaceSchemaLocation="http://sumo.dlr.de/xsd/routes_file.xsd">
    <vehicle id="0" depart="0.00">
        <route edges="27466952#5 -164767969#0 -27858586#1 -27858586#0 -1317938953 -164767967 -217584328#1 -217584328#0 -150755355#1 -150755355#0 -185130663#11 -185130663#10 -185130663#9 -185130663#8 -185130663#5 -185130663#2 -185130663#1 -185130663#0 -27466927#1 -27466927#0 22989443 1314375569 121904080 184688753#0 184688753#1 184688753#2 184688753#3 137389783#2 137389783#3 137389783#4 137389783#5 112071134#1 137389782#0 -24040413#1 -24040413#0 27856873#0 27858610#0 27858610#1 27858610#2 27858610#3 27858610#4 27858610#5 27857472#1 27857472#2 27858669#0 27858669#1 -27858671#2 147098714 -147098714"/>
    </vehicle>
    <vehicle id="1" depart="1.00">
        <route edges="121996227#0 33208444 27898276#4 121997936#0 121997936#1 27875966 123914557#0 123914557#1 123914557#3 123914557#4 123914557#5 185130632#0 185130632#1 -121997934 -185130633#1 -185130633#0 122371526#0 122371526#1 122371526#2 122371526#3 122371526#4 137389783#2 137389783#3 137389783#4 137389783#5 112071134#1 137389782#0 -24040413#1 -24040413#0 27856873#0 27858610#0 27858610#1 27858610#2 27858610#3 27858610#4 27858610#5 211668737#0 211668737#1 211668737#2 211668737#3 308810202 27858620#0 101600488"/>
    </vehicle>
    <vehicle id="2" depart="2.00">
        <route edges="27874928 27874948#0 27465232#4 27466952#2 -27858586#1 -27858586#0 -1317938953 -164767967 -217584328#1 -217584328#0 -150755355#1 -150755355#0 -185130663#11 -185130663#10 -185130663#9 -185130663#8 -185130663#5 -185130663#2 -185130663#1 -185130663#0 -27466927#1 -27466927#0 22989443 1314375569 121904080 184688753#0 184688753#1 184688753#2 184688753#3 137389783#2 137389783#3 137389783#4 137389783#5 112071134#1 137389782#0 -24040413#1 27857116#1"/>
    </vehicle>
    <vehicle id="3" depart="3.00">
        <route edges="33681206#0 33681206#1 27856820#3 27858652 27858653#0 27858653#1 27858653#2 27858698#1 101603970#0 101603970#1 101603970#2 24040413#0 24040413#1 137389782#2 137389782#3 22989438#2 121904079#0 121904079#1 184688752 24040425 -48135109#11 -48135109#10 -48135109#8 -48135109#7 -48135109#6 -48135109#4 -48135109#3 -48135109#2 -48135109#1 -48135109#0 1363862064 27874854#1 27874707#1 24039930#4 24039930#5 24039930#6 24039930#7 -24039930#7"/>
    </vehicle>
    <vehicle id="5" depart="5.00">
        <route edges="-96898361#1 -96898361#0 36906092#0 36906092#1 36911899#2 36911899#3 96898361#0 96898361#1 96898351#0 96898351#2 185130664 36905835#0 22989486#5 1335584274#1 202564591#0 202564591#1 202564591#2 202564591#3 96898363#0 96898363#1 96898362#0 96898362#1 27922707#0 27922707#1 27922707#2 27922707#3 27922707#4 190502835#2 190502835#5 137055273#2 164699212 212079294#0 212079294#1"/>
    </vehicle>
    <vehicle id="6" depart="6.00">
        <route edges="-147098714 27858671#2 33681206#0 33681206#1 27856820#3 27858652 27858653#0 27858653#1 27858653#2 27858698#1 101603970#0 101603970#1 101603970#2 24040413#0 24040413#1 137389782#2 137389782#3 22989438#2 121904079#0 121904079#1 184688752 24040425 -48135109#11 -48135109#10 -48135109#8 -48135109#7 -48135109#6 -48135109#4 -48135109#3 -48135109#2 -48135109#1"/>
    </vehicle>
    <vehicle id="7" depart="7.00">
        <route edges="27467133#1 27467133#2 212505274#0 212505274#1 27466769#0 33205810#0 39033118#4 27856730#1 236738476#0 236738476#4 236738476#5 236738476#8 236738476#9 236738476#12 236738476#13 236738476#14"/>
    </vehicle>
    <vehicle id="8" depart="8.00">
        <route edges="-972609823 972609823 -236738478#7 -236738478#6 -236738478#5 -236738478#4 -236738478#2 -236738478#1 -27466771#3 -27466771#2 -39033116 27466766#1 27466766#2 1363802844#1 24202544#0 24202544#1 1363299504 48135032#2 48135032#3 48135032#4 48135032#5 48135032#6 1417061153 24202532#0 24202532#1 24202532#2 185130640#0 185130640#1 155876890#0 217582008#0 217582008#1 1416607629 1416607627#0 1416607627#1 1416607627#2 1416607627#3 1416607627#4 80836810 27361213#1 27361213#2"/>
    </vehicle>
    <vehicle id="9" depart="9.00">
        <route edges="27897690#0 22989459#0 185130664 36905835#0 22989486#5 1335584274#1 202564591#0 202564591#1 202564591#2 202564591#3 96898363#0 96898363#1 96898363#2 1393404348#0 1393404348#2 1393404348#3 -33206644#6 -33206644#4 -33206644#3 -33206644#2 -33206644#1 -33206644#0 121997934 1274282363 27875967#0 27875967#1 27875967#3 27875967#4 27875967#6 1274282970 121996233#0 121996233#1 -121996233#1 -121996233#0"/>
    </vehicle>
    <vehicle id="10" depart="10.00">
        <route edges="27876049#1 33206649#0 33206649#1 33206649#2 236738476#16 122371526#0 122371526#1 122371526#2 122371526#3 122371526#4 137389783#2 137389783#3 137389783#4 137389783#5 112071134#1 137389782#0 -24040413#1 -24040413#0 27856873#0 27858610#0 27858610#1 27858610#2 27858610#3 27858610#4 27858610#5 211668737#0 211668737#1 211668737#2 211668737#3 308810202 27858620#0 27858620#1"/>
    </vehicle>
    <vehicle id="11" depart="11.00">
        <route edges="1363848201#2 -1363848201#2 27410678#0 27467133#1 27467133#2 212505274#0 212505274#1 27466769#0 33205810#0 27466914#1 27466914#2 27466914#3 27466914#4 27466914#5 27466914#6 27875998 27875999 236738478#7 122647358#0 122647358#1 122647358#2 122647358#3 27875962#1 -27875962#1"/>
    </vehicle>
    <vehicle id="12" depart="12.00">
        <route edges="69716268 308810203#0 308810203#1 308810203#2 308810203#3 190062922 101600495#0 101600495#1 27858698#1 101603970#0 101603970#1 101603970#2 24040413#0 24040413#1 137389782#2 137389782#3 102613772#0 137389781#1 137389781#2 210593024#0 210593024#1 210593024#2 210593024#3 122371524#1 247990380#0 247990380#3 247990380#4 247990380#6 247990380#7 1363351679#1 1363351679#2"/>
    </vehicle>
    <vehicle id="13" depart="13.00">
        <route edges="-24202532#2 -24202532#1 -24202532#0 51167960#0 51167960#1 51167960#2 51167960#3 1417061153 27410627#0 27410627#1 27410627#2 27410627#3 27410627#4 80836809#1 80836809#2 80836809#3 185130635#0 185130635#1 185130635#2 185130635#3 101600485#0 101600485#1 -217584328#1 -217584328#0 -150755355#1 -150755355#0 -185130663#11 -185130663#10 -185130663#9 -185130663#8 -185130663#5 -185130663#2 -185130663#1 -185130663#0 -27466927#1 -27466927#0 22989443 1314375569 121904080 184688753#0 184688753#1 184688753#2 184688753#3 137389783#2 137389783#3 137389783#4 137389783#5 137389784#2 137389784#3 137389784#5 112071143 112071150 33680793#0 33680793#1 33680793#2 33680793#4 122106667#0 210593669#1 25691994#1 -25691994#1"/>
    </vehicle>
    <vehicle id="14" depart="14.00">
        <route edges="27923164 133369678#0 133369678#2 997238954 -27466810#4 -212079234#5 -212079234#4 -212079234#2 -212079234#1 -212079234#0 -212079239 212079305#0 247990380#3 247990380#4 247990380#6 247990380#7 1363351679#1 1363351679#2 1363351679#3 27466769#0 27466769#2 27466769#4 27466766#1 27466766#2 1363802844#1 24202544#0 24202544#1 1363299504 48135032#2 48135032#3 48135032#4 48135032#5 48135032#6 1417061153 24202532#0 24202532#1 24202532#2 185130640#0 185130640#1 155876890#0 -217582012#3 -217582012#2 -217582012#1 -217582012#0 27465232#1 27465232#2"/>
    </vehicle>
    <vehicle id="16" depart="16.00">
        <route edges="22989445#9 22989445#10 185130650 22989460 29249470#0 -96898351#2 -96898351#1 96898351#0"/>
    </vehicle>
    <vehicle id="17" depart="17.00">
        <route edges="1417061152#1 1417061152#2 -1417061152#2 -1417061152#1 217584327#0 39033116 27466771#1 27466771#3 236738478#1 236738478#2 236738478#4"/>
    </vehicle>
    <vehicle id="18" depart="18.00">
        <route edges="27898279#1 121996227#0 33208444 27898276#4 121997936#0 121997936#1 -33207957 121996233#0 121996233#1 -185130666 -27466810#6 -27466810#5 -27466810#4 -27466810#3 -27466810#2 -27466810#1 -27466810#0 27466816 972609823 122647358#0 122647358#1 972609617#0 972609617#1 27466842#0 27466842#1"/>
    </vehicle>
    <vehicle id="19" depart="19.00">
        <route edges="30694792#1 30694792#2 27467278#2 27467278#3 27467278#4 27467278#5 27467278#6 27467278#7 27467278#8 101600485#1 101600474 -185130635#3 -185130635#2 -185130635#1 -185130635#0 27410609#1 -155876896#2 -155876896#1 -155876896#0 155876906 -24202532#2 -24202532#1 -24202532#0 24202532#0 24202532#1 24202532#2"/>
    </vehicle>
    <vehicle id="20" depart="20.00">
        <route edges="27858610#1 27858610#2 27858610#3 27858653#0 27858653#1 27858653#2 27858698#1 101603970#0 101603970#1 101603970#2 24040413#0 24040413#1 137389782#2 137389782#3 22989438#2 121904079#0 121904079#1 184688752 22989418 232427895 185130698 27466927#0 27466927#1 185130663#0 185130663#1 185130663#2 185130663#3 185130663#6 185130663#9 185130663#10 185130663#11 150755355#0 150755355#1 217584328#0 217584328#1 48135106#1 48135106#2 48135106#3 48135106#4 48135106#5 48135106#6 155876891#1 -185130640#1"/>
    </vehicle>
    <vehicle id="21" depart="21.00">
        <route edges="101600495#0 101600495#1 27858698#1 101603970#0 101603970#1 101603970#2 24040413#0 24040413#1 137389782#2 137389782#3 102613772#0 137389781#1 137389781#2 210593024#0 210593024#1 210593024#2 210593024#3 122371524#1 247990380#0 -212079305#1 -997238473#1 -997238473#0 997238474#0 997238474#1 27875998 27875999 236738478#7 122647358#0 122647358#1 122647358#2 122647358#3"/>
    </vehicle>
    <vehicle id="22" depart="22.00">
        <route edges="-236738478#1 -27466771#3 -27466771#2 39033118#1 39033118#4 27856730#1 236738476#0 236738476#4 236738476#5 236738476#8 236738476#9 236738476#12 236738476#13 236738476#14 236738476#15 236738476#16 122371526#0 122371526#1 122371526#2 122371526#3 122371526#4 22989445#0 22989445#2 27898162#1 27898162#2 27898227#0 27898227#1 36906093#3 27898233#1 102613789"/>
    </vehicle>
    <vehicle id="23" depart="23.00">
        <route edges="-27361252#1 27361252#1 27361232#2 27361235#0 1264121828#2 1363299504 48135032#2 48135032#3 48135032#4 48135032#5 48135032#6 1417061153 27410627#0 27410627#1 27410627#2 27410627#3 27410627#4 -1417061152#3 -1417061152#2 -1417061152#1 217584327#0 39033116 27466771#1 27466771#3 236738478#1 236738478#2 236738478#4 236738478#5 236738478#6 236738478#7 122647358#0 122647358#1 122647358#2 122647358#3 27875962#1 133369679 133369678#0 133369678#2 997238953 129221900#4 129221900#5 185130666 33207711#0 33207711#1 121996227#0 33208444 27898276#4 121997936#0"/>
    </vehicle>
    <vehicle id="24" depart="24.00">
        <route edges="27466952#1 27466952#2 -27858586#1 -27858586#0 -1317938953 -164767967 101600474 -185130635#3 -185130635#2 -185130635#1 -185130635#0 -80836809#3 -80836809#2 -80836809#1 -1417061152#3 -1417061152#2 -1417061152#1 217584327#0 39033116 27466771#1 27466771#3 236738478#1 236738478#2 236738478#4 236738478#5 236738478#6 236738478#7 122647358#0 122647358#1 122647358#2 122647358#3 27875962#1 133369679 133369678#0 133369678#2 997238953 212770353#0 212770353#1 212770353#2 212770353#3 212770353#4 212770353#5 139900094#1"/>
    </vehicle>
    <vehicle id="25" depart="25.00">
        <route edges="140465640#0 27875971#0 27875971#1 27875971#2 27875971#3 185130663#0 185130663#1 185130663#2 185130663#3 185130663#6 185130663#9 185130663#10 185130663#11 150755355#0 150755355#1 217584328#0 217584328#1 101600474 -185130635#3 -185130635#2 -185130635#1 -185130635#0 -80836809#3 -80836809#2 -80836809#1"/>
    </vehicle>
    <vehicle id="27" depart="27.00">
        <route edges="27467063#5 27466999#2 27466999#3 190502846#7 1363351679#3 27466769#0 27466769#2 27466769#4"/>
    </vehicle>
    <vehicle id="28" depart="28.00">
        <route edges="-27922984#0 185130684#0 185130684#1 185130684#2 185130684#4 185130684#6 185130684#7 185130684#8 185130684#10 185130684#11 185130684#14 185130684#15 185130684#18 27466908#0 27466908#1 -236738478#5 -236738478#4 -236738478#2 -236738478#1 -27466771#3 -27466771#2 -39033116 27466766#1 27466766#2 1363802844#1 24202544#0 24202544#1 1363299504 48135032#2 48135032#3 48135032#4 48135032#5 48135032#6 1417061153 24202532#0 24202532#1 24202532#2 185130640#0 185130640#1 155876890#0 -217582012#3 -217582012#2 -217582012#1 -217582012#0 27465232#1 27465232#2 27874928 27874948#0"/>
    </vehicle>
    <vehicle id="29" depart="29.00">
        <route edges="-27898220#1 -27898220#0 27898220#0 27898220#1 27898220#2 27898220#3 36905388 183567731#0 183567731#1 185130641 22989486#0 22989486#1 29249501#0 29249501#1 29249501#2 36906095#0 36906094#1 36906094#2 36906094#4 36906094#5 36906094#6 36906094#7 137389783#2 137389783#3 137389783#4 137389783#5 137389784#2 137389784#3 137389784#5 77168989 -77169013#1 -77169013#0 122755759#0 122755759#1 122755759#2 122755759#3 150755354#1 145203694"/>
    </vehicle>
    <vehicle id="30" depart="30.00">
        <route edges="96898382#1 18883388 -29249458 22989458 36906095#0 36906094#1 36906094#2 36906094#4 36906094#5 36906094#6 36906094#7 22989439#1 121904079#0 121904079#1 184688752 22989418 232427895 185130698 27466927#0 27466927#1 185130663#0 185130663#1 185130663#2 185130663#3 27467063#0 27467063#2 27467063#3 27467063#4 27467063#5"/>
    </vehicle>
    <vehicle id="31" depart="31.00">
        <route edges="236738478#1 236738478#2 -236738478#2 -236738478#1 -27466771#3 -27466771#2 39033118#1 39033118#4 27856730#1 236738476#0 236738476#4 236738476#5 236738476#8 236738476#9 236738476#12 236738476#13 236738476#14 236738476#15 236738476#16 122371526#0 122371526#1 122371526#2 122371526#3 122371526#4 137389783#2 137389783#3 137389783#4 137389783#5 112071134#1 137389782#0 -24040413#1 -24040413#0 27856873#0 27858610#0 27858610#1 27858610#2 27858610#3 27858610#4 27858610#5 211668737#0 211668737#1 211668737#2 211668737#3 308810202 27858620#0 27858620#1 27858592#0 27858592#1"/>
    </vehicle>
    <vehicle id="32" depart="32.00">
        <route edges="27922977#2 189558655#0 185130684#4 129221900#1 129221900#2 129221900#4 129221900#5 -27466810#6 -27466810#5 -27466810#4 -212079234#5 -212079234#4 -212079234#2 -212079234#1 -212079234#0 79058082 27875974#1"/>
    </vehicle>
    <vehicle id="33" depart="33.00">
        <route edges="101600495#1 27858698#1 101603970#0 101603970#1 101603970#2 24040413#0 24040413#1 137389782#2 137389782#3 22989438#2 121904079#0 121904079#1 184688752 22989418 232427895 185130698 27466927#0 27466927#1 185130663#0 185130663#1 185130663#2 185130663#3 185130663#6 185130663#9 185130663#10 185130663#11 1360110035 52026774 1317938952#0 1317938952#1 27858586#0 27858586#1 164767969#0 164767969#1 -164767969#2"/>
    </vehicle>
    <vehicle id="35" depart="35.00">
        <route edges="-69716265 27858717 308810203#0 308810203#1 308810203#2 308810203#3 190062922 101600495#0 101600495#1 27858698#1 101603970#0 101603970#1 101603970#2 24040413#0 24040413#1 137389782#2 137389782#3 22989438#2 121904079#0 121904079#1 184688752 22989418 232427895 185130698 27466927#0 27466927#1 185130663#0 185130663#1 185130663#2 185130663#3 185130663#6 185130663#9 185130663#10 185130663#11 150755355#0 150755355#1 217584328#0 217584328#1 101600474 -185130635#3 -185130635#2 -185130635#1 -185130635#0 27410609#1 -155876896#2 -155876896#1 -155876896#0 155876906 -24202532#2 -24202532#1 -24202532#0 51167960#0"/>
    </vehicle>
    <vehicle id="36" depart="36.00">
        <route edges="33206644#5 -33206644#6 -33206644#4 -33206644#3 -33206644#2 -33206644#1 -33206644#0 121997934 1274282363 27875967#0 27875967#1 27875967#3 27875967#4 27875967#6 1274282970 27898279#0 27898279#1 121996227#0 121996227#1 121996227#2 -27923007#1 27922957#2 27922957#3 129221900#5"/>
    </vehicle>
    <vehicle id="37" depart="37.00">
        <route edges="27467278#0 27467278#1 27467278#2 105003392#0 105003392#1 105003392#2 27875293 -1363848201#2 27410678#0 27467133#1 27467133#2 212505274#0 212505274#1 27466769#0 33205810#0 27466914#1 27466914#2 27466914#3 27466914#4 27466914#5 27466914#6 27875998 27875999 236738478#7 122647358#0 122647358#1 972609617#0 972609617#1 27466842#0 27466842#1 121906071#1 121906071#2 121906071#4 121906071#5 121906071#7 121906071#8 121906071#9 156391583#1"/>
    </vehicle>
    <vehicle id="38" depart="38.00">
        <route edges="36906094#5 36906094#6 36906094#7 137389781#1 137389781#2 -27875956#2 -27875956#0 189740278"/>
    </vehicle>
    <vehicle id="39" depart="39.00">
        <route edges="121906061#2 39033118#1 39033118#4 27856730#1 236738476#0 236738476#4 236738476#5 236738476#8 236738476#9 236738476#12 236738476#13 236738476#14 236738476#15 236738476#16 122371526#0 122371526#1 122371526#2 122371526#3 122371526#4 137389783#2 137389783#3 137389783#4 137389783#5 112071134#1"/>
    </vehicle>
    <vehicle id="40" depart="40.00">
        <route edges="236738479#0 27466769#0 33205810#0 27466914#1 27466914#2 27466914#3 27466914#4 27466914#5 27466914#6 27875998 27875999 236738478#7 122647358#0 122647358#1 972609617#0 972609617#1 27466842#0 27466842#1 121906071#1 121906071#2"/>
    </vehicle>
    <vehicle id="41" depart="41.00">
        <route edges="24202532#2 -24202532#2 -24202532#1 -24202532#0 51167960#0 51167960#1 51167960#2 51167960#3 1417061153 27410627#0 27410627#1 27410627#2 27410627#3 27410627#4 80836809#1 80836809#2 80836809#3 185130635#0 185130635#1 185130635#2 185130635#3 101600485#0 101600485#1 -217584328#1 -217584328#0 -150755355#1 -150755355#0 -185130663#11 -185130663#10 -185130663#9 -185130663#8 -185130663#5 -185130663#2 -185130663#1 -185130663#0 -27466927#1 -27466927#0 22989443 1314375569 121904080 184688753#0 184688753#1 184688753#2 184688753#3 22989445#0 22989445#2 27898162#1 27898162#2 27898227#0 27898227#1 102613775#5 33819290#0"/>
    </vehicle>
    <vehicle id="42" depart="42.00">
        <route edges="155876906 -24202532#2 -24202532#1 -24202532#0 51167960#0 51167960#1 51167960#2 51167960#3 1417061153 27410627#0 27410627#1 27410627#2 27410627#3 27410627#4 -1417061152#3 -1417061152#2 -1417061152#1 217584327#0 39033116 27466771#1 27466771#3 236738478#1 236738478#2 236738478#4 236738478#5 236738478#6 236738478#7 122647358#0 122647358#1 122647358#2 122647358#3 27875962#1 133369679 133369678#0 133369678#2 997238953 129221900#4 129221900#5 185130666 33207711#0 33207711#1 121996227#0 -101600456#1 -101600456#0 101600456#0 101600456#1"/>
    </vehicle>
    <vehicle id="43" depart="43.00">
        <route edges="997238476 27875998 27875999 236738478#7 122647358#0 122647358#1 122647358#2 122647358#3 27875962#1 133369679 133369678#0 133369678#2 997238953 212770353#0 212770353#1 212770353#2"/>
    </vehicle>
    <vehicle id="44" depart="44.00">
        <route edges="-24040413#1 24040413#1 137389782#2 137389782#3 102613772#0 22989445#0 22989445#2 22989445#6 22989445#7 22989445#9 22989445#10 185130650 22989460 29249470#0 185130664 112145856#0 185130648#0 185130648#1 -185130641"/>
    </vehicle>
    <vehicle id="45" depart="45.00">
        <route edges="-27466810#6 -27466810#5 -27466810#4 -27466810#3 -27466810#2 -27466810#1 -27466810#0 27466816 972609823 -236738478#7 -236738478#6 -236738478#5 -236738478#4 -236738478#2 -236738478#1 -27466771#3 -27466771#2 -39033116 80836812#1 80836812#2 1417061152#1 1417061152#2 1417061152#3 80836809#1 80836809#2 80836809#3 185130635#0 185130635#1 185130635#2 185130635#3 101600485#0 101600485#1 27467224#1 1317938953 27858586#0 27858586#1 164767969#0 27466952#0"/>
    </vehicle>
    <vehicle id="46" depart="46.00">
        <route edges="27875983#1 236738479#0 27466769#0 27466769#2 27466769#4 80836812#1 80836812#2 1417061152#1 1417061152#2 1417061152#3 80836809#1 80836809#2 80836809#3 185130635#0 185130635#1"/>
    </vehicle>
    <vehicle id="47" depart="47.00">
        <route edges="-209173104 -27898220#2 -27898220#1 -27898220#0 27898220#0 27898220#1 27898220#2 27898220#3 36905388 183567731#0 183567731#1 185130641 22989486#0 22989486#1 22989486#5 1335584274#1 202564591#0 202564591#1 202564591#2 202564591#3 96898363#0 96898363#1 96898363#2 1393404348#0 1393404348#2 1393404348#3 -33206644#6 -33206644#4 -33206644#3 -33206644#2 -33206644#1 -33206644#0 121997934 1274282363 27875967#0 27875967#1 27875967#3 27875967#4 27875967#6 1274282970 33207957 -121996223#1 -121996223#0 121997933 146715457#0"/>
    </vehicle>
    <vehicle id="48" depart="48.00">
        <route edges="997238475#1 997238473#1 212079305#0 236738476#12 236738476#13 236738476#14 236738476#15 236738476#16 122371526#0 122371526#1 122371526#2 122371526#3 122371526#4 22989445#0 22989445#2 22989445#6 22989445#7 22989445#9"/>
    </vehicle>
    <vehicle id="49" depart="49.00">
        <route edges="80836812#2 1417061152#1 1417061152#2 1417061152#3 80836809#1 80836809#2 80836809#3 185130635#0 185130635#1 185130635#2 185130635#3 101600485#0 101600485#1 -217584328#1 -217584328#0 -150755355#1 -150755355#0 -185130663#11 -185130663#10 -185130663#9 -185130663#8 -185130663#5 -185130663#2 -185130663#1 -185130663#0 -27466927#1 -27466927#0 22989443 1314375569 121904080 184688753#0 184688753#1 184688753#2 184688753#3 137389783#2 137389783#3 137389783#4 137389783#5 112071134#1 137389782#0 -24040413#1 -24040413#0 27856873#0 27858610#0 27858610#1 27858610#2 27858610#3 27858610#4 27858610#5 211668737#0 211668737#1 211668737#2 211668737#3 69716268 308810203#0 308810203#1 308810203#2 308810203#3"/>
    </vehicle>
    <vehicle id="50" depart="50.00">
        <route edges="-1318284238 -208926500#1 137389783#5 112071134#1 137389782#0 -24040413#1 -24040413#0 27856873#0 27858610#0 27858610#1 27858610#2 27858610#3 27858610#4 27858610#5 27857472#1 27857472#2 27858669#0 27858669#1 -27858671#2 27858671#2"/>
    </vehicle>
    <vehicle id="51" depart="51.00">
        <route edges="27856873#0 27858610#0 27857010 101603970#2 24040413#0 24040413#1 137389782#2 137389782#3 102613772#0 137389781#1 137389781#2 210593024#0 210593024#1 210593024#2 210593024#3 185130633#0 185130633#1 121997934 1274282363 27875967#0 27875967#1 27875967#3 27875967#4 27875967#6 1274282970 27898279#0 27898279#1 121996227#0 121996227#1 121996227#2 27898286#0 27898286#1 -212770353#5 -212770353#4 -27922984#2 -27922984#1 -27922984#0 185130684#0 185130684#1 156391583#1 232427891"/>
    </vehicle>
    <vehicle id="53" depart="53.00">
        <route edges="-27466842#1 -27466842#0 27923173#0 27923173#2 -133369680 27923176 -27875962#1 122647358#4 122647358#5 27466816 24040396#1 997238473#0 997238473#1 212079305#0 27875781#1 27875783#0 27875783#1 27875783#3 27875783#4 27875783#5 27875783#6 189740279#1 189740279#2 189740279#3 189740279#4 184688753#0 184688753#1 48135124 121904079#0 121904079#1 184688752 22989418 232427895 185130698 27466927#0 27466927#1 185130663#0"/>
    </vehicle>
    <vehicle id="54" depart="54.00">
        <route edges="185130684#4 129221900#1 129221900#2 129221900#4 129221900#5 185130666 -121996233#1 -121996233#0 33207957 27875966 123914557#0 123914557#1 123914557#3 123914557#4 123914557#5 185130632#0 185130632#1 -121997934 -185130633#1 -185130633#0 122371526#0 122371526#1 122371526#2 122371526#3 122371526#4 22989445#0 22989445#2 22989445#6 22989445#7 22989445#9 22989445#10 22989465#0 22989465#0-AddedOffRampEdge 22989465#1 1335584274#1 202564591#0 202564591#1 202564591#2 202564591#3 96898363#0 96898363#1 96898362#0 96898362#1 27922707#0 27922707#1 27922707#2 27922707#3 27922707#4 190502835#2 190502835#5 137055273#2 27922802#1 681406193"/>
    </vehicle>
    <vehicle id="55" depart="55.00">
        <route edges="33206644#4 33206644#5 -33206644#6 -33206644#4 -33206644#3 -33206644#2 -33206644#1 -33206644#0 121997934 1274282363 27875967#0 27875967#1 27875967#3 27875967#4 27875967#6 1274282970 121996233#0 121996233#1 -185130666 -27466810#6 -27466810#5 -27466810#4 -27466810#3 -27466810#2 -27466810#1 -27466810#0 27466816 972609823 122647358#0 122647358#1 972609617#0 972609617#1 27466842#0 27466842#1 121906071#1 121906071#2 121906071#4"/>
    </vehicle>
    <vehicle id="56" depart="56.00">
        <route edges="210780058#3 210780058#4 48996847#0 48996847#1 48135109#0 48135109#1 48135109#2 48135109#3 48135109#4 48135109#6 48135109#7 48135109#8 48135109#10 48135109#11 48135107 185130695 232427894 121904080 184688753#0 184688753#1 184688753#2 184688753#3 22989445#0 22989445#2 22989445#6 22989445#7 22989445#9 22989445#10 22989465#0 22989465#0-AddedOffRampEdge 22989465#1 1335584274#1 202564591#0 202564591#1 202564591#2 202564591#3 96898363#0 96898363#1 96898363#2 1393404348#0 1393404348#2 1393404348#3 -33206644#6 -33206644#4 -33206644#3 -33206644#2 -33206644#1"/>
    </vehicle>
    <vehicle id="57" depart="57.00">
        <route edges="36906094#1 36906094#2 36906094#4 36906094#5 36906094#6 36906094#7 137389781#1 137389781#2 210593024#0 210593024#1 210593024#2 210593024#3 185130633#0 185130633#1 33206644#0 33206644#1 33206644#2"/>
    </vehicle>
    <vehicle id="58" depart="58.00">
        <route edges="122755759#1 122755759#2 122755759#3 150755354#1 145203694 1393670544 1393673436 164752117#0 164752117#1 145203690 77169013#0 77169013#1 122371536 112071170 1314471852 121904078#0 121904078#1 121904078#2 121904078#3 121904078#4 121904078#5 137389782#0 137389782#2 137389782#3 22989438#2 121904079#0 121904079#1 184688752 22989418 232427895 185130698 27466927#0 27466927#1 185130663#0 185130663#1 185130663#2 185130663#3 27467063#0 27467063#2 27467063#3 27467063#4"/>
    </vehicle>
    <vehicle id="59" depart="59.00">
        <route edges="27411015#0 27410202#0 27410627#4 -1417061152#3 27875454#1 -27875454#1"/>
    </vehicle>
    <vehicle id="60" depart="60.00">
        <route edges="27875958#0 27875958#1 27875987#1 236738476#5 236738476#8 236738476#9 236738476#12 236738476#13 236738476#14 236738476#15 236738476#16 122371526#0 122371526#1 122371526#2 122371526#3 122371526#4 22989445#0 22989445#2 22989445#6 22989445#7 22989445#9 22989445#10 185130650 22989460 29249470#0 23463107#1"/>
    </vehicle>
    <vehicle id="61" depart="61.00">
        <route edges="27875971#1 27875971#2 27875971#3 -27466927#1 -27466927#0 22989443 1314375569 121904080 184688753#0 184688753#1 184688753#2 184688753#3 22989445#0 22989445#2 22989445#6 22989445#7 22989445#9 22989445#10 22989465#0 22989465#0-AddedOffRampEdge 22989465#1 1335584274#1 202564591#0 202564591#1 202564591#2 202564591#3 96898363#0 96898363#1 96898362#0 96898362#1 96898358#3 185130643#0 185130643#1 168856392#0 168856392#1 29249407#0 29249407#1 22989459#0"/>
    </vehicle>
    <vehicle id="62" depart="62.00">
        <route edges="-101600456#1 -101600456#0 101600456#0 101600456#1 33208444 27898276#4 121997936#0 121997936#1 27875966 123914557#0 123914557#1 123914557#3 123914557#4 123914557#5 185130632#0 185130632#1 -121997934 -185130633#1 -185130633#0 122371526#0 122371526#1 122371526#2 122371526#3 122371526#4 137389783#2 137389783#3 137389783#4 208926500#1 1318284240#0 1318284239"/>
    </vehicle>
    <vehicle id="63" depart="63.00">
        <route edges="-137055273#2 137055273#2 164699212 212079294#0 212079294#1 168856392#0 168856392#1 168856392#2 29249501#0 29249501#1 29249501#2 36906095#0 36906094#1 36906094#2 36906094#4 36906094#5 36906094#6 36906094#7 22989439#1 121904079#0 121904079#1 184688752 22989418 232427895 185130698 27466927#0 27466927#1 185130663#0 185130663#1 185130663#2 185130663#3 185130663#6 185130663#9 185130663#10 185130663#11 150755355#0 150755355#1 217584328#0 217584328#1 48135106#1 48135106#2 48135106#3 48135106#4 48135106#5 48135106#6"/>
    </vehicle>
    <vehicle id="64" depart="64.00">
        <route edges="33206649#2 236738476#16 185130633#0 185130633#1 121997934 1274282363 27875967#0 27875967#1 27875967#3 27875967#4 27875967#6 1274282970 27898279#0 27898279#1 121996227#0 121996227#1 121996227#2 27898286#0 27898286#1 -212770353#5 27922957#0"/>
    </vehicle>
    <vehicle id="65" depart="65.00">
        <route edges="124048539#4 27858631#2 27858631#3 27858631#4 -27858620#0 27858717 308810203#0 308810203#1 308810203#2 308810203#3 190062922 101600495#0 101600495#1 27858698#1 101603970#0 101603970#1 101603970#2 24040413#0 24040413#1 137389782#2 137389782#3 22989438#2 121904079#0 121904079#1 184688752 22989418 232427895 185130698 27466927#0 27466927#1 185130663#0 185130663#1 185130663#2 185130663#3 185130663#6 185130663#9 30694792#0 30694792#1 30694792#2 27467278#2 105003392#0 105003392#1 105003392#2 27875293 -1363848201#2 -208926492"/>
    </vehicle>
    <vehicle id="66" depart="66.00">
        <route edges="33206649#1 33206649#2 236738476#16 122371524#1 247990380#0 247990380#3 247990380#4 247990380#6 247990380#7 1363351679#1 1363351679#2 1363351679#3 27466769#0 27466769#2 27466769#4 27466766#1 27466766#2 51167961#0 51167961#1"/>
    </vehicle>
    <vehicle id="67" depart="67.00">
        <route edges="-24039930#5 -24039930#4 24039930#4 24039930#5 24039930#6 30694584 30694736 -30694699#1 48135109#6 48135109#7 48135109#8 48135109#10 48135109#11 48135107 185130695 232427894 121904080 184688753#0 184688753#1 184688753#2 184688753#3 137389783#2 137389783#3 137389783#4 137389783#5 137389784#2 137389784#3 137389784#5 112071143 112071150 33680793#0 33680793#1 33680793#2 33680793#4 122106667#0 122106668#1 210593671#0"/>
    </vehicle>
    <vehicle id="68" depart="68.00">