<routes>
  <vType id="bg_car" vClass="passenger" accel="2.6" decel="4.5" tau="0.7" minGap="0.5" sigma="0.8"/>
  <vehicle id="veh_2514" type="bg_car" depart="0" departPos="random_free" departLane="best">
    <route edges="83028196#1 -4649342#10 -4649342#8 -392104943#3 -392104943#1 -392104943#0 -30816875#2 -30816875#0 30816874#0 30816874#1 -155603789#3 -155603789#2 -155603789#1 -155603789#0 -1384702193 -1381475930#2 -1381475930#0 142808367#1 142808367#3 1119418498#1 -142808368#0 1097574345 39322451#0 1381475936 142786391 4673715#0 4673715#1 157032565 87602698#0 87602698#1 87602698#2 87602698#3 87602698#4 87602698#5 87602698#6 87602698#7 87602698#10 409064421 1429920605#1 1429920605#3 475919640#0 475919640#1 409064419 409064423#0 416447051#0 416447051#1 416447051#2 416447051#3"/>
  </vehicle>
  <vehicle id="veh_87" type="bg_car" depart="1" departPos="random_free" departLane="best">
    <route edges="-155603789#2 -155603789#1 -155603789#0 -1384702193 -1381475930#2 -1381475930#0 142808367#1 142808367#3 1119418498#1 -142808368#0 1097574345 39322451#0 39378780#1 39378780#2"/>
  </vehicle>
  <vehicle id="veh_1585" type="bg_car" depart="2" departPos="random_free" departLane="best">
    <route edges="-344664988#1 -344664988#0 -149789269#6 -149789269#5 -149789269#4 -149789269#3 -149789269#2 -149789269#1 149789269#0 149789269#2 149789269#3 149789269#4 149789269#5 149789269#6 344664988#0 344664988#1 51476080#2 51476080#3 51476080#4 51476080#5 51476080#6 51508352#1 51508352#2 51508352#3 1294707328#1 1294707328#2 1294707328#3 1294707328#4 1294707328#5 1093404773#0 1093404773#1 151996168#0 151996168#2 151996169 1194937166#0 -410655508#0 -151754277#2 -392219838#1 -93072396#9"/>
  </vehicle>
  <vehicle id="veh_933" type="bg_car" depart="3" departPos="random_free" departLane="best">
    <route edges="39378780#2 552799309 27807185#10 27807185#11 29279743#5 29279743#6 29279743#7 29279743#8 1420375295#0 1420375295#1 1420375295#2 1420375295#4 38868688 328027165 38868690#0 38868690#1 505114029#0 505114029#1 505114029#2 38868689#1 1421993407 161766362#0 161766362#3 161766362#6 -39322226#3 -39322226#2 -39322226#1 -39322226#0 -1418923415#1 -851177627#0 -292630184#2 -292630184#1 -278513971#5 -278513971#4 -278513971#2 -278513971#1 -278513971#0 1393204543 38349617#0 1114967668#2 1114967668#3"/>
  </vehicle>
  <vehicle id="veh_1763" type="bg_car" depart="5" departPos="random_free" departLane="best">
    <route edges="-851166559#7 851166559#7 -27822839#11 -27822839#10 -27822839#8 -27822839#7 -27822839#6 -27822839#5 -27822839#4 -27822839#3 -27822839#1 -155041000#2 -155041000#1 155040999#1 -155040999#1"/>
  </vehicle>
  <vehicle id="veh_883" type="bg_car" depart="7" departPos="random_free" departLane="best">
    <route edges="-851153414#5 -851153414#4 851153414#4 851153414#5 851153414#6 851153414#7 4651574#2 26632545#0 26632545#1 26632545#2 1093404774#0 1093404774#1 1093404774#2 1093404774#3 1093404774#6 155603766#1 155603766#3 155603766#6 155603766#7 155603766#8 155603766#9 155603766#13 155603766#14 155603766#15 -39322009#2 -39322009#1 -4262228#4 -4262228#3 -4262228#2 -4262228#1 -155041000#2 -155041000#1 -155041000#0 53530910#1 -152130806#2 -152130806#1 -152130806#0 -392103891#0 -34130308#1 -34130308#0 -51508352#3 -51508352#2 134929400#1 134929400#2 134929400#3 4262211#1 4262211#2"/>
  </vehicle>
  <vehicle id="veh_37" type="bg_car" depart="8" departPos="random_free" departLane="best">
    <route edges="-392104939#2 -392104939#0 -30816921#0 -129552585 -1384165913 -30816876#0 30816874#0 30816874#1 -155603789#3 154575776#1 154575776#2 154575776#4 154575776#5 154575776#9 38906714#1 38906714#2 851115542#1 851113025#0 851113025#3 -27822839#6 -27822839#5 -27822839#4 -155055230#1 -155055230#0 -427194760#1 -427194760#0 427190844#0 427190844#1 427190844#3 -39321856#1 -39321856#0 -93195119#3 -93195119#2 -93195119#1 93195119#1"/>
  </vehicle>
  <vehicle id="veh_2542" type="bg_car" depart="9" departPos="random_free" departLane="best">
    <route edges="-155603766#3 -155603766#1 -1093404774#6 -1093404774#3 -1093404774#2 -1093404774#1 -1093404774#0 -26632545#2 -26632545#1 -26632545#0 -27807186#2 -27807186#1 -27807186#0 -426542002#1 -426542002#0 -30816923#6 -30816923#5 -30816923#4 -30816923#3 -30816923#2 426541999 426542000#1 -4651575"/>
  </vehicle>
  <vehicle id="veh_2568" type="bg_car" depart="9" departPos="random_free" departLane="best">
    <route edges="4519927#3 4519925#5 4519925#6 4519925#7 456746071 4519926#1 4519926#4 4519926#5 4698761#1 1119418498#1 -142808368#0 1097574345 39322451#0 1381475936 142786391 4673715#0 4673715#1 157032565 87602698#0 87602698#1 -424062930 4673715#3 475919641#0 151866165#2 1429920605#0"/>
  </vehicle>
  <vehicle id="veh_534" type="bg_car" depart="10" departPos="random_free" departLane="best">
    <route edges="-313577317#0 313577318#1 313577318#2 313577318#3 16786175#1 16786175#2 93195119#1 93195119#2 93195119#3 39321856#0 39321856#1 39322009#1 39322009#2 -155603766#15 -155603766#14 -155603766#13 -155603766#9 -155603766#8 -155603766#7 -155603766#6 -155603766#3 -155603766#1 -1093404774#6 -1093404774#3 -1093404774#2 -4519926#7 -4519926#6 4698761#1 -1119418498#0 -142808367#2 1381475930#0 1381475930#1 1384702193 155603789#0 -155603789#0"/>
  </vehicle>
  <vehicle id="veh_2804" type="bg_car" depart="10" departPos="random_free" departLane="best">
    <route edges="4071768#1 4262211#9 89840548#1 89840548#4 89840548#5 89840548#7 -27822839#4 -155055230#1 -155055230#0 -427194760#1 -427194760#0 427190844#0 427190844#1 427190844#3 39322009#1 39322009#2 39322009#3 39322009#5 39322009#6 39322009#7 39322009#10 39322009#11 39322009#12 -37280852#1 392103885#1 392103885#2 392103885#3 -1125436667#2 -1125436667#1 -1125436667#0 312549779#1 -4520027#6 -4520027#4 -4520027#3 -4520027#2 -4520027#1 -1110882606#3 -1110882606#2 -1110882606#1 -1110882606#0 -786224784#4 -786224784#3 -786224784#2 -786224784#1 786224784#1 786224784#2 786224784#3"/>
  </vehicle>
  <vehicle id="veh_2533" type="bg_car" depart="11" departPos="random_free" departLane="best">
    <route edges="172457732#1 172457732#2 172457732#3 172457732#4 38759698 313576543#1 1118923884#1 37280968#1 1119851404 161773732#0 161773732#2 161773732#3 313576545#0 456746081#0 -71001814#9 -71001814#8 -71001814#7"/>
  </vehicle>
  <vehicle id="veh_2550" type="bg_car" depart="12" departPos="random_free" departLane="best">
    <route edges="-71001814#7 -71001814#6 -71001814#5 -71001814#4 -71001814#3 -71001814#2 71001814#2 71001814#3 71001814#4 71001814#5 71001814#6 71001814#7 71001814#8 71001814#9 4673703#2 271888999#1 456746073 134941605#1 4003470#1 4003470#2 4003470#3 4003470#4 4003470#5 4003470#6 -186553873#0 -490386700#1 -360485248#0 -4262232#3 -4262232#2 -4262232#1 4645396#5 4645396#6 312549780#1 1418927599#1 24998128#0 24998128#1 -161766362#6 -161766362#3 -161766362#0 -1421993407 -38868689#1 -505114029#2 -505114029#1 -505114029#0 -38868690#2 -38868690#0 -328027165 -38868688 -1420375295#4 -1420375295#3 -1420375295#1 -1420375295#0 -29279743#8 -29279743#7 157032563#1 -157032563#1"/>
  </vehicle>
  <vehicle id="veh_879" type="bg_car" depart="13" departPos="random_free" departLane="best">
    <route edges="-273936882#6 -273936882#4 -273936882#3 -273936882#2 -273936882#1 273936882#1 273936882#2 273936882#3 273936882#4 273936882#5 273936882#8 459027201 475919642#0 475919642#1 394489297#0 394489297#1 1429920604#1 1429920604#3 151866164#0 151866164#2 151866164#3 151866164#4 1420375294 39322227#1 310719822#0 1097574351 30616063#0 30616063#1 30616063#2 851139057#1 851139057#2 -345839560#4 -345839560#2 -39322009#13 -39322009#11 -39322009#10 -39322009#7 -39322009#6 -39322009#5 39322009#5 39322009#6"/>
  </vehicle>
  <vehicle id="veh_2616" type="bg_car" depart="14" departPos="random_free" departLane="best">
    <route edges="154470146#6 154470138#6 154470138#7 154470138#8 89840533#6 154470151#0 154470151#1 154470151#2 154470151#3 -89699186#2 -89699186#1 -89699186#0 -4071766#1 151996170#1 1093404772#0 155055228#1 155055228#3 155055228#4 851113025#0 851113025#3 -27822839#6 -27822839#5 -27822839#4"/>
  </vehicle>
  <vehicle id="veh_1976" type="bg_car" depart="15" departPos="random_free" departLane="best">
    <route edges="-851166562#1 -851166562#0 -851166560#3 -851166560#2 -851166560#1 -851166560#0 -851166559#7 -851166559#5 -851166559#4 -1093404774#6"/>
  </vehicle>
  <vehicle id="veh_2993" type="bg_car" depart="16" departPos="random_free" departLane="best">
    <route edges="-4592386#1 146808037#1 146808037#3 55506134#0 172457732#0 172457732#1 172457732#2 172457732#3 172457732#4 38759698 313576543#1 -38349617#1 -1393204543 278513971#0 278513971#1 278513971#2 278513971#4 278513971#5 292630184#1 -292630184#1"/>
  </vehicle>
  <vehicle id="veh_1222" type="bg_car" depart="17" departPos="random_free" departLane="best">
    <route edges="4645400#4 4645400#5 4645400#6 -392069505 -53530907#6 -53530907#5 -53530907#4 -53530907#1 -53530907#0 -53530910#1 155041000#0 155041000#1 155041000#2 4262228#1 4262228#2 4262228#3 4262228#4 39322009#1 39322009#2 39322009#3 39322009#5 39322009#6 39322009#7 39322009#10 39322009#11 39322009#12 345839560#1 345839560#3 -851139057#3 -851139057#1 -30616063#2 -30616063#1 -30616063#0 -1097574351 -310719822#1 -39322227#1 -505114029#2 -505114029#1 -505114029#0 -38868690#2 -38868690#0 -328027165 -38868688 -1420375295#4 -1420375295#3 -1420375295#1 -1420375295#0 -29279743#8 -29279743#7 -29279743#6 -29279743#5"/>
  </vehicle>
  <vehicle id="veh_1267" type="bg_car" depart="17" departPos="random_free" departLane="best">
    <route edges="154470146#6 154470138#6 154470138#7 154470138#8 89840533#6 154470151#0 154470151#1 154470151#2 154470151#3 -89699186#2 -89699186#1 -89699186#0 154470149#1 154470149#2 154470149#4 154470149#7 38906715#1 38906715#3 151754280 151866851#0 151866851#1 30816874#0 30816874#1 -155603789#3 154575774#1 154575774#2 154575774#3 851167804#0"/>
  </vehicle>
  <vehicle id="veh_3219" type="bg_car" depart="18" departPos="random_free" departLane="best">
    <route edges="4698761#1 1119418498#1 -142808368#0 1097574345 39322451#0 160026050#0 1097574351 30616063#0 30616063#1 30616063#2 851139055#1"/>
  </vehicle>
  <vehicle id="veh_3262" type="bg_car" depart="20" departPos="random_free" departLane="best">
    <route edges="851129967#1 851129967#2 851129967#3 244549197#1 166123299#1 166123299#3 273936882#1 273936882#2 273936882#3 273936882#4 273936882#5 273936882#8 459027201 -8286442#10 -8286442#9 -8286442#7 -8286442#6 -8286442#5 -8286442#4 -8286442#3 -8286442#2 -8286442#1 -8286442#0 8286442#0 8286442#1 8286442#2 8286442#3 8286442#4 8286442#5"/>
  </vehicle>
  <vehicle id="veh_2787" type="bg_car" depart="22" departPos="random_free" departLane="best">
    <route edges="-392103891#0 -34130308#1 -34130308#0 679007428 34130308#1 34130308#2 152130806#0 152130806#1 152130806#2 -53530910#1 155041000#0 155041000#1 155041000#2 4262228#1 4262228#2 4262228#3 4262228#4 39322009#1 39322009#2 -155603766#15 -155603766#14 -155603766#13 -155603766#9 -155603766#8 -155603766#7 -155603766#6 -155603766#3 -155603766#1 -1093404774#6 -1093404774#3 -1093404774#2 -1093404774#1"/>
  </vehicle>
  <vehicle id="veh_78" type="bg_car" depart="24" departPos="random_free" departLane="best">
    <route edges="-851166562#1 -851166562#0 -851166560#3 -851166560#2 -851166560#1 -851166560#0 -851166559#7 -851166559#5 -851166559#4 -851166559#1 -39322228#3 -310719822#1 -39322227#1"/>
  </vehicle>
  <vehicle id="veh_2803" type="bg_car" depart="24" departPos="random_free" departLane="best">
    <route edges="-30816876#0 30816874#0 30816874#1 -155603789#3 -155603789#2 -155603789#1 -155603789#0 -1384702193 -1381475930#2 -1381475930#0 142808367#1 142808367#3 1119418498#1 -142808368#0 1097574345 39322451#0 1381475936 142786391 4673715#0 4673715#1 157032565 87602698#0 87602698#1 87602698#2 87602698#3 87602698#4 87602698#5 87602698#6 87602698#7 87602698#10 409064421 1429920605#1 1429920605#3 475919640#0 475919640#1 409064419 409064423#0 409064423#1 371866616 371866617#0 -786224784#4 -786224784#3 -786224784#2 -786224784#1 -786224784#0 1136511792#1"/>
  </vehicle>
  <vehicle id="veh_3093" type="bg_car" depart="24" departPos="random_free" departLane="best">
    <route edges="-4649336#2 -4649336#1 154470149#4 154470149#7 89699200#1 151754277#1 410655508#0 -851166562#1 -851166562#0 -851166560#3 -851166560#2 -851166560#1 -851166560#0 -851166559#7 -851166559#5 -851166559#4 -851166559#1 -39322228#3 -310719822#1 -39322227#1 -1420375294 -151866164#4 -151866164#3 -151866164#2 -157028289#7 -157028289#6 -157028289#5 -157028289#4 157028289#4 157028289#5 157028289#6"/>
  </vehicle>
  <vehicle id="veh_331" type="bg_car" depart="27" departPos="random_free" departLane="best">
    <route edges="-310719822#1 -39322227#1 38868689#1 1421993407 -1421993407 -38868689#1"/>
  </vehicle>
  <vehicle id="veh_1371" type="bg_car" depart="27" departPos="random_free" departLane="best">
    <route edges="87602698#1 -424062930 4673715#3 475919641#0 1429920604#1 1429920604#3 151866164#0 151866164#2 151866164#3 151866164#4 1420375294 38868689#1 1421993407 161766362#0 161766362#3 161766362#6 -39322226#3 -39322226#2 -39322226#1 -39322226#0 -1418923415#1 -851177627#0 -292630184#2 292630184#2 851177627#0"/>
  </vehicle>
  <vehicle id="veh_1455" type="bg_car" depart="27" departPos="random_free" departLane="best">
    <route edges="157028291#3 157028291#4 151866164#3 151866164#4 1420375294 -505114029#2 -505114029#1 -505114029#0 -38868690#2 -38868690#0 4519768 1382820645 1097574335 1097574343 37666060#1 37666060#2 142808368#0 -1119418498#1 -1119418498#0 -142808367#2 1381475930#0 1381475930#1 1384702193 155603789#0 155603789#1 155603789#2 154575774#1 8535659#0 8535659#1 5349854#1 5349854#2"/>
  </vehicle>
  <vehicle id="veh_1920" type="bg_car" depart="30" departPos="random_free" departLane="best">
    <route edges="-40317922#4 -40317922#3 40317922#3 40317922#4 392103887 943542797#0 40317921#2 4645398#1 152130806#0 152130806#1 152130806#2 -53530910#1 155041000#0 155041000#1 155041000#2 27822839#1 27822839#3 27822839#4 27822839#5 27822839#6 -851113025#3 -851113025#0 -851115542#1 -38906714#2 -38906714#1 -154575776#9 -154575776#5 -154575776#4 -154575776#2 -154575776#1 154575774#1 154575774#2 154575774#3 851167804#0 851167804#3 -30816923#2 426541999 426542000#1 -4651575"/>
  </vehicle>
  <vehicle id="veh_2554" type="bg_car" depart="34" departPos="random_free" departLane="best">
    <route edges="-30816875#2 -30816875#0 30816874#0 30816874#1 -155603789#3 154575776#1 154575776#2 154575776#4 154575776#5 154575776#9 38906714#1 38906714#2 851115542#1 851113025#0 851113025#3 851113024#0 851113024#1 851113023#0 851113023#1 155603766#8 155603766#9 155603766#13 155603766#14 155603766#15 39322009#3 -312550030#2 -312550030#1 -155040996#7 -155040996#6 -155040996#3 -155040996#1 392103894#4 392103894#5 392103894#6 392103894#7 456746077 1104982515#0 1104982515#2 1104982515#3 456486315#0 456486315#1 456746081#0 -71001814#9 -71001814#8 -71001814#7 -71001814#6 -71001814#5 -71001814#4 -71001814#3 -71001814#2 -71001814#1 -71001814#0 -1418922359#2 -310707189#1 -310707186#3 -310707186#0"/>
  </vehicle>
  <vehicle id="veh_589" type="bg_car" depart="35" departPos="random_free" departLane="best">
    <route edges="157028291#0 157028291#1 157028291#2 157028291#3 157028291#4 151866164#3 151866164#4 1420375294 -505114029#2 -505114029#1 -505114029#0 -38868690#2 -38868690#0 -328027165 -38868688 4673715#0 4673715#1 157032565 87602698#0 87602698#1 87602698#2"/>
  </vehicle>
  <vehicle id="veh_2632" type="bg_car" depart="35" departPos="random_free" departLane="best">
    <route edges="134929400#4 134929400#7 134929400#8 134929400#9 392069504 1168569265#1 392069506#1 392069508#1 392088974#0 392088974#1 679007428 34130308#1 34130308#2 152130806#0 152130806#1 152130806#2 -53530910#1 155041000#0 155041000#1 155041000#2 4262228#1 4262228#2 4262228#3 4262228#4 39322009#1 39322009#2 -155603766#15 -155603766#14 -155603766#13 -155603766#9 -155603766#8 -155603766#7 -155603766#6 -155603766#3 -155603766#1 -1093404774#6 -1093404774#3 -1093404774#2 -4519926#7 -4519926#6 4519926#6"/>
  </vehicle>
  <vehicle id="veh_3073" type="bg_car" depart="35" departPos="random_free" departLane="best">
    <route edges="-163989125#0 4673739#1 4673739#2 4673739#3 4673739#4 4060426#0 4060426#1 4060426#2 163989143#0 163989143#1 -38349617#1 -1393204543 278513971#0 278513971#1 278513971#2 278513971#4 278513971#5 292630184#1 292630184#2 851177627#0 1418923415#1 39322226#0 39322226#1 39322226#2 39322226#3 -161766362#6 -161766362#3 -161766362#0 -1421993407 -38868689#1 -505114029#2 -505114029#1 -505114029#0 -38868690#2 -38868690#0 -328027165 -38868688 -1420375295#4 -1420375295#3 -1420375295#1 -1420375295#0 -29279743#8 -29279743#7 -29279743#6 -29279743#5 -27807185#11 -27807185#10 -27807185#6 -27807185#3 -27807185#2 -27807185#0 -27807186#2 -27807186#1 -27807186#0 -426542002#1 -426542002#0 -30816923#6 30816923#6"/>
  </vehicle>
  <vehicle id="veh_3199" type="bg_car" depart="36" departPos="random_free" departLane="best">
    <route edges="-89840558#2 89840533#1 4645400#1 -506111188#0 -89840543 -1390073380 30603896#0 4071766#1 89699186#0 89699186#1 89699186#2"/>
  </vehicle>
  <vehicle id="veh_2292" type="bg_car" depart="38" departPos="random_free" departLane="best">
    <route edges="371866616 371866617#0 1119418549#1 316538694#1 475919644#0 475919644#1 475919644#3 475919642#0 475919642#1 394489297#0 394489297#1 1429920604#1 1429920604#3 151866164#0 151866164#2 151866164#3 151866164#4 1420375294 39322227#1 310719822#0 39322228#2 851166559#1 851166559#4 851166559#5 851166559#7 851166560#0 -4519927#7 -4519927#6 -4519927#4 -4519927#3 -4519927#1"/>
  </vehicle>
  <vehicle id="veh_464" type="bg_car" depart="39" departPos="random_free" departLane="best">
    <route edges="155040996#1 155040996#3 155040996#6 155040996#7 312550030#1 312550030#2 -39322009#3 -155603766#15 -155603766#14 -155603766#13 -155603766#9 -155603766#8 -851113023#1 -851113023#0 -851113024#1 -851113024#0 -851113025#3 -851113025#0 -851115542#1 -38906714#2 -38906714#1 851166562#0 851166562#1 -410655508#0 -151754277#2 -89699200#3 -310729848#1 -80239245#3 4649342#1 4649342#2"/>
  </vehicle>
  <vehicle id="veh_2893" type="bg_car" depart="39" departPos="random_free" departLane="best">
    <route edges="786224784#2 786224784#3 786224784#4 1119418549#1 316538694#1 475919644#0 475919644#1 475919644#3 475919642#0 475919642#1 394489297#0 394489297#1 1429920604#1 1429920604#3 151866164#0 151866164#2 151866164#3 151866164#4 1420375294 39322227#1 310719822#0 39322228#2 851166559#1 851166559#4 851166559#5 851166559#7 851166560#0 851166560#1 851166560#2 851166560#3 851166562#0 851166562#1 -1194937166#0 -151996169 -151996168#2 -151996168#1 155055228#1"/>
  </vehicle>
  <vehicle id="veh_3145" type="bg_car" depart="39" departPos="random_free" departLane="best">
    <route edges="27822839#7 27822839#8 -27822839#8 -27822839#7 -851113025#3 -851113025#0 851113025#0"/>
  </vehicle>
  <vehicle id="veh_1537" type="bg_car" depart="40" departPos="random_free" departLane="best">
    <route edges="-58807374#9 58807374#9 392103893#1 392103893#2 147557401#1 376401315 376401314 376401316#0 376401313#0 376401312#1 376401312#2 149935566#1 149935566#2 58561800#1 58561799#0 58561799#1 147557400#1 147557400#3 147557400#4 147557400#6 943542795#0 392103894#0 392103894#1 392103894#2 392103894#3 392103894#4 392103894#5 392103894#6 392103894#7 456746077 1104982515#0 1104982515#2 1104982515#3 456486315#0 456486315#1 172457732#0 172457732#1 172457732#2 172457732#3 172457732#4 38759698 313576543#1 1114967668#2 1114967668#3 38759699#0 38759699#1 38759699#2 -501462498#1 -1105553618#0 1105553618#0"/>
  </vehicle>
  <vehicle id="veh_1304" type="bg_car" depart="41" departPos="random_free" departLane="best">
    <route edges="4645396#6 -392103885#3 -392103885#2 -392103885#1 -392103885#0 -39322009#13 -39322009#11 -39322009#10 -39322009#7 -39322009#6 -39322009#5 -39322009#3 -39322009#2 -39322009#1 -4262228#4 -4262228#3 -4262228#2 -4262228#1 -155041000#2 -155041000#1 -155041000#0 53530910#1 -152130806#2 -152130806#1 -152130806#0 -392103891#0 -34130308#1 -34130308#0 -51508352#3 -51508352#2 134929400#1 134929400#2 134929400#3 4262211#1 4262211#2"/>
  </vehicle>
  <vehicle id="veh_3483" type="bg_car" depart="41" departPos="random_free" departLane="best">
    <route edges="8286442#10 475919642#0 475919642#1 394489297#0 394489297#1 1429920604#1 1429920604#3 151866164#0 151866164#2 151866164#3 151866164#4 1420375294 39322227#1 310719822#0 39322228#2 851166559#1 851166559#4 851166559#5 851166559#7 -27822839#11"/>
  </vehicle>
  <vehicle id="veh_1568" type="bg_car" depart="42" departPos="random_free" departLane="best">
    <route edges="1110882606#2 1110882606#3 4520027#1 4520027#2 4520027#3 4520027#4 4520027#6 -851177627#0 -292630184#2 -292630184#1 -278513971#5 -278513971#4 -278513971#2 -278513971#1 -278513971#0 1393204543 38349617#0 1118923884#1 37280968#1 1119851404 161773732#0 161773732#2"/>
  </vehicle>
  <vehicle id="veh_1682" type="bg_car" depart="43" departPos="random_free" departLane="best">
    <route edges="-4645396#6 -4645396#5 4645396#5 4645396#6 312549780#1 1418927599#1 24998128#0 24998128#1 -161766362#6 -161766362#3 -161766362#0 -1421993407 -38868689#1 -1420375294 -151866164#4"/>
  </vehicle>
  <vehicle id="veh_1182" type="bg_car" depart="44" departPos="random_free" departLane="best">
    <route edges="-1420375295#3 -1420375295#1 -1420375295#0 -29279743#8 -29279743#7 29279743#7 29279743#8 1420375295#0 1420375295#1 1420375295#2 1420375295#4 38868688 328027165 4519768 1382820645 1097574335 1097574343 37666060#1 37666060#2 678898004#0 678898004#1 678898004#2 851166559#1 851166559#4 851166559#5 851166559#7 851166560#0 851166560#1 851166560#2 851166560#3 851166562#0 851166562#1 -1194937166#0 -151996169 -151996168#2 -151996168#1 151996168#0"/>
  </vehicle>
  <vehicle id="veh_1842" type="bg_car" depart="44" departPos="random_free" departLane="best">
    <route edges="134929400#8 134929400#9 392069504 1168569265#1 392069506#1 34130309#1 392069505 89840550#0 89840550#1 89840550#2 89840550#4 89840550#5 30603896#0 151996170#1 1093404772#0 155055228#1 155055228#3 155055228#4 851113025#0"/>
  </vehicle>
  <vehicle id="veh_2631" type="bg_car" depart="45" departPos="random_free" departLane="best">
    <route edges="273936882#5 273936882#8 459027201 475919642#0 475919642#1 394489297#0 394489297#1 1429920604#1 1429920604#3 151866164#0 151866164#2 151866164#3 151866164#4 1420375294 39322227#1 310719822#0 1097574351 30616063#0 30616063#1 30616063#2 851139057#1 851139057#2 -345839560#4 -345839560#2 -37280850#2 -37280850#0 -1421993408#1 360485248#0 490386700#1 186553873#0 456746077 1104982515#0 1104982515#2 1104982515#3 456486315#0 456486315#1 456746081#0 -71001814#9"/>
  </vehicle>
  <vehicle id="veh_457" type="bg_car" depart="46" departPos="random_free" departLane="best">
    <route edges="310707192#3 -310707192#3 -310707192#2 -310707192#1 -310707192#0 -1418922358#3 -1418922358#2 1418922359#1 71001814#0 71001814#1 71001814#2 71001814#3 71001814#4 71001814#5 71001814#6 71001814#7 71001814#8 71001814#9 4673703#2 271888999#1 456746073 134941605#1 4003470#1 4003470#2 4003470#3 4003470#4 4003470#5 4003470#6 -186553873#0 -490386700#1 -360485248#0 1421993408#1 37280850#0 37280850#1 345839560#1 345839560#3 -851139057#3 -851139057#1 -30616063#2 -30616063#1 -30616063#0 -1097574351 38868058#1 39378780#1 39378780#2 552799309 -27807185#6 -27807185#3 -27807185#2 -27807185#0 27807185#0 27807185#2"/>
  </vehicle>
  <vehicle id="veh_1997" type="bg_car" depart="46" departPos="random_free" departLane="best">
    <route edges="4645396#5 4645396#6 312549780#1 1418927599#1 24998128#0 24998128#1 -161766362#6 -161766362#3 -161766362#0 -1421993407 -38868689#1 -1420375294 -151866164#4 -151866164#3 -151866164#2 -151866164#0 -1429920604#3 -1429920604#2 151866165#2 1429920605#0 1429920605#1 1429920605#3"/>
  </vehicle>
  <vehicle id="veh_1077" type="bg_car" depart="47" departPos="random_free" departLane="best">
    <route edges="540351567 93072396#0 93072396#1 93072396#4 93072396#5 93072396#6 93072396#9 392219838#0 151754277#1 410655508#0 -1194937166#0 -151996169 -151996168#2 -151996168#1 -1093404773#2 -1093404773#0 -1294707328#5 -1294707328#4 -1294707328#3 -1294707328#2 -1294707328#1 -51508352#3 -51508352#2 134929400#1 134929400#2 134929400#3 134929400#4 134929400#7 134929400#8 134929400#9 -1168569266#1 -1168569266#0 -3845812#2 -3845812#0 -392069507#2 -392069507#1 -392069507#0"/>
  </vehicle>
  <vehicle id="veh_3031" type="bg_car" depart="47" departPos="random_free" departLane="best">
    <route edges="155603766#6 155603766#7 155603766#8 155603766#9 155603766#13 155603766#14 155603766#15 -39322009#2 -39322009#1 -4262228#4 -4262228#3 -4262228#2 -4262228#1 -155041000#2 -155041000#1 -155041000#0 53530910#1 -152130806#2 -152130806#1 -152130806#0 -392103891#0 -34130308#1 -34130308#0 1294707328#1"/>
  </vehicle>
  <vehicle id="veh_2931" type="bg_car" depart="48" departPos="random_free" departLane="best">
    <route edges="154470149#7 89699200#1 151754277#1 410655508#0 -851166562#1 -851166562#0 38906714#1 38906714#2 851115542#1 851113025#0 851113025#3 851113024#0 851113024#1 851113023#0 851113023#1 155603766#8 155603766#9 155603766#13 155603766#14 155603766#15 39322009#3 -312550030#2 -312550030#1 -155040996#7 -155040996#6 -155040996#3 -155040996#1 392103894#4 392103894#5 392103894#6 392103894#7 456746077 1104982515#0 1104982515#2 1104982515#3 456486315#0 456486315#1 456746081#0 -71001814#9 -71001814#8 -71001814#7 -71001814#6 -71001814#5 -71001814#4 -71001814#3 -71001814#2 -71001814#1 -71001814#0 -1418922359#2 1418922358#1 1418922358#3 310707192#0 310707192#1 310707192#2 310707192#3 -124559501#1 -124559501#0 236949942#0"/>
  </vehicle>
  <vehicle id="veh_889" type="bg_car" depart="49" departPos="random_free" departLane="best">
    <route edges="-149789269#4 -149789269#3 -149789269#2 -149789269#1 149789269#0 149789269#2 149789269#3 149789269#4 149789269#5 149789269#6 344664988#0 344664988#1 51476080#2 51476080#3 51476080#4 51476080#5 51476080#6 149935566#1 149935566#2 58561800#1 58561799#0 58561799#1 40317921#2 4645398#1 152130806#0 152130806#1 152130806#2 -53530910#1 155041000#0 155041000#1 155041000#2 4262228#1 4262228#2 4262228#3 4262228#4 39322009#1 39322009#2 -155603766#15 -155603766#14 -155603766#13 -155603766#9 -155603766#8 -155603766#7 -155603766#6 -155603766#3 -155603766#1"/>
  </vehicle>
  <vehicle id="veh_185" type="bg_car" depart="50" departPos="random_free" departLane="best">
    <route edges="-1194937166#0 -151996169 4519929#2 851115543#0 851115543#1 1263432767#0 1263432767#1 114256582#0 114256582#1 114256586#1 114256586#4 114256586#5 -114256586#5 -114256586#4"/>
  </vehicle>
  <vehicle id="veh_593" type="bg_car" depart="51" departPos="random_free" departLane="best">
    <route edges="851129967#2 851129967#3 244549197#1 -244549197#1 -851129967#3 -851129967#2 -851129967#1 -851129967#0 -851129968 -851129969#1 -851129969#0 -152543150#1 -152543150#0 87602698#3 87602698#4"/>
  </vehicle>
  <vehicle id="veh_686" type="bg_car" depart="52" departPos="random_free" departLane="best">
    <route edges="-4520029#8 -4520029#7 -4520029#5 4520029#5 4520029#7 4520029#8 4520029#9 4520029#10 4520029#11 -4645396#2"/>
  </vehicle>
  <vehicle id="veh_3327" type="bg_car" depart="52" departPos="random_free" departLane="best">
    <route edges="149789269#0 149789269#2 149789269#3 149789269#4 149789269#5 149789269#6 344664988#0 344664988#1 51476080#2 51476080#3 51476080#4 51476080#5 51476080#6 149935566#1 149935566#2 58561800#1 58561799#0 58561799#1 147557400#1 147557400#3 147557400#4 147557400#6 943542795#0 392103894#0 392103894#1 392103894#2 392103894#3 392103894#4 392103894#5 392103894#6 392103894#7 456746077 1104982515#0 1104982515#2 1104982515#3 456486315#0 456486315#1 456746081#0 -71001814#9 -71001814#8 -71001814#7 -71001814#6 -71001814#5 -71001814#4 -71001814#3 -71001814#2 -71001814#1 -71001814#0 -1418922359#2 1418922358#1 1418922358#3 310707192#0 310707192#1 310707192#2 310707192#3 -310707192#3 -310707192#2 -310707192#1 -310707192#0"/>
  </vehicle>
  <vehicle id="veh_2431" type="bg_car" depart="53" departPos="random_free" departLane="best">
    <route edges="-114256582#1 -114256582#0 4519931#7 4519931#8 4519931#9 -851166559#5 -851166559#4 -851166559#1 -39322228#3 -310719822#1 -39322227#1 -1420375294 -151866164#4 -151866164#3 -151866164#2 -151866164#0 -1429920604#3 -1429920604#2 151866165#2 1429920605#0 1429920605#1 1429920605#3 -273936882#6 -273936882#4 -273936882#3 -273936882#2 -273936882#1"/>
  </vehicle>
  <vehicle id="veh_143" type="bg_car" depart="55" departPos="random_free" departLane="best">
    <route edges="1125436667#2 -392103885#3 -392103885#2 -392103885#1 -392103885#0 -39322009#13 -39322009#11 -39322009#10 -39322009#7 -39322009#6 -39322009#5 -39322009#3 -39322009#2 -39322009#1 -4262228#4 -4262228#3 -4262228#2 -4262228#1 -155041000#2 -155041000#1 -155041000#0 53530910#1 -152130806#2 -152130806#1 -152130806#0 -392103891#0 -34130308#1 -34130308#0 -51508352#3 -51508352#2 134929400#1 134929400#2 134929400#3 134929400#4 134929400#7 134929400#8 134929400#9 -1168569266#1 -1168569266#0 34114237#1 1168569266#1"/>
  </vehicle>
  <vehicle id="veh_1132" type="bg_car" depart="55" departPos="random_free" departLane="best">
    <route edges="1429920605#3 273936882#8 459027201 475919642#0 475919642#1 394489297#0 394489297#1 151866167#2 151866167#3 151866167#4 1429920603#2 4519768 1382820645 1097574335 1097574343 37666060#1 37666060#2 142808368#0 -1119418498#1 -1119418498#0 -142808367#2 1381475930#0 1381475930#1 1384702193 155603789#0 -155603789#0 -1384702193 -1381475930#2 -1381475930#0"/>
  </vehicle>
  <vehicle id="veh_2407" type="bg_car" depart="56" departPos="random_free" departLane="best">