<?xml version="1.0" encoding="UTF-8"?>

<!-- generated on 2026-04-12 23:12:56.249452 by randomTrips.py UNKNOWN
<configuration>
    <net-file value="network.net.xml"/>
    <route-file value="routes.rou.xml"/>
    <validate value="True"/>
    <end value="1000.0"/>
</configuration>
-->

<!-- generated on 2026-04-12 23:12:56 by Eclipse SUMO duarouter Version 1.18.0
<configuration xmlns:xsi="http://www.w3.org/2001/XMLSchema-instance" xsi:noNamespaceSchemaLocation="http://sumo.dlr.de/xsd/duarouterConfiguration.xsd">

    <input>
        <net-file value="network.net.xml"/>
        <route-files value="trips.trips.xml"/>
    </input>

    <output>
        <output-file value="routes.rou.xml"/>
        <alternatives-output value="NUL"/>
    </output>

    <time>
        <begin value="0"/>
        <end value="1000.0"/>
    </time>

    <report>
        <no-warnings value="true"/>
        <ignore-errors value="true"/>
        <no-step-log value="true"/>
    </report>

</configuration>
-->

<routes xmlns:xsi="http://www.w3.org/2001/XMLSchema-instance" xsi:noNamespaceSchemaLocation="http://sumo.dlr.de/xsd/routes_file.xsd">
    <vehicle id="0" depart="0.00">
        <route edges="30816874#0 30816874#1 -155603789#3 155603789#3 155603782 317934876#0 317934876#1 155603792 831762506#0 831762506#1 540351567 93072396#0 93072396#1 93072396#4 93072396#5 93072396#6 93072396#9 392219838#0 151754277#1 410655508#0 -1194937166#0 -151996169 -151996168#2 -151996168#1 -1093404773#2 -1093404773#0 -1294707328#5 -1294707328#4"/>
    </vehicle>
    <vehicle id="1" depart="1.00">
        <route edges="-4645391#1 -4645391#0 147557400#6 943542795#0 392103894#0 392103894#1 392103894#2 392103894#3 392103894#4 392103894#5 392103894#6 392103894#7 -186553873#0 -490386700#1 -360485248#0 1421993408#1 37280850#0 37280850#1 345839560#1 345839560#3 1418938292 24998128#0 24998128#1 -39322226#3 -39322226#2"/>
    </vehicle>
    <vehicle id="2" depart="2.00">
        <route edges="40317922#3 40317922#4 392103887 943542797#0 147557400#1 147557400#3 147557400#4 147557400#6 943542795#0 392103894#0 392103894#1 392103894#2 392103894#3 392103894#4 392103894#5 392103894#6 392103894#7 456746077 1104982515#0 1104982515#2 1104982515#3 456486315#0 456486315#1 37666024#1 1118923876#2 37281005#1"/>
    </vehicle>
    <vehicle id="3" depart="3.00">
        <route edges="71001814#4 71001814#5 71001814#6 71001814#7 71001814#8 71001814#9 4673703#2 271888999#1 55506134#0 172457732#0 172457732#1 172457732#2 172457732#3 172457732#4 38759698 313576543#1 -38349617#1 -1393204543 278513971#0 278513971#1 278513971#2 278513971#4 278513971#5 292630184#1 292630184#2 851177627#0 -4520027#6 -4520027#4 -4520027#3 -4520027#2 -4520027#1 -1110882606#3 -1110882606#2 157028288#0 157028288#1 157028288#2 157028288#3 -157028288#3"/>
    </vehicle>
    <vehicle id="4" depart="4.00">
        <route edges="123173286#1 -30816921#0 -129552585 -1384165913 -30816876#0 30816864 831762506#0 831762506#1 540351567 93072396#0 93072396#1 93072396#4 93072396#5 93072396#6 93072396#9 392219838#0 151754277#1 410655508#0 -1194937166#0 -151996169 -151996168#2 -151996168#1 -1093404773#2 -89840548#1 -89840548#0 4071767 -1390073380"/>
    </vehicle>
    <vehicle id="5" depart="5.00">
        <route edges="-39322009#11 -39322009#10 39322009#10 39322009#11 39322009#12 -37280850#2 -37280850#0 -1421993408#1 360485248#0 490386700#1 186553873#0 456746077 1104982515#0 1104982515#2 1104982515#3 456486315#0 456486315#1 456746081#0 -71001814#9 -71001814#8 -71001814#7 -71001814#6 -71001814#5 -71001814#4 -71001814#3 -71001814#2 -71001814#1 -71001814#0 -1418922359#2 -1420375290#4 -1420375290#0 -155039625#1 -155039625#0 155039625#0 155039625#1"/>
    </vehicle>
    <vehicle id="6" depart="6.00">
        <route edges="-1381475930#0 -1444358648#1 -27822839#15 -27822839#14 851166560#0 851166560#1 851166560#2 851166560#3 851166562#0 851166562#1 -1194937166#0 -151996169 -151996168#2 -151996168#1 -1093404773#2 -1093404773#0 -1294707328#5 -1294707328#4 -1294707328#3 -1294707328#2 -1294707328#1 -392088974#1 -392088974#0 -392069508#1 -89840558#4 -89840558#3 -89840558#2 -392088973#1"/>
    </vehicle>
    <vehicle id="7" depart="7.00">
        <route edges="310707192#0 310707192#1 310707192#2 310707192#3 -310707192#3 -310707192#2 -310707192#1 -310707192#0 -1418922358#3 -1418922358#2 -310707189#1 -310707186#3 -310707186#0 -38159426#3 -38159426#2 146808037#1 146808037#3 456746073 134941605#1 4003470#1 4003470#2 4003470#3 4003470#4 4003470#5 4003470#6 -186553873#0 -490386700#1 -360485248#0 1421993408#1 37280850#0 37280850#1 345839560#1 345839560#3 -851139057#3 -851139057#1 -30616063#2 -30616063#1 -30616063#0 -1097574351 38868058#1 37666060#1 37666060#2 142808368#0 -1119418498#1 -1119418498#0 -142808367#2 1381475930#0 1381475930#1 1384702193 155603789#0 155603789#1 155603789#2 155603789#3 155603782 317934876#0 317934876#1 158901372"/>
    </vehicle>
    <vehicle id="8" depart="8.00">
        <route edges="-39322009#3 39322009#3 39322009#5 39322009#6 39322009#7 39322009#10 39322009#11 39322009#12 -37280852#1 392103885#1 392103885#2 392103885#3 -1125436667#2 -1125436667#1 -1125436667#0 312549779#1 -851177627#0 -292630184#2 -292630184#1 24998362#1 24998362#2 24998362#3 24998362#4 24998362#5 24998362#7"/>
    </vehicle>
    <vehicle id="9" depart="9.00">
        <route edges="456486315#1 172457732#0 172457732#1 172457732#2 172457732#3 172457732#4 38759698 313576543#1 1114967668#2 1114967668#3 38759699#0 38759699#1 38759699#2 -501462498#1 -1105553618#0"/>
    </vehicle>
    <vehicle id="10" depart="10.00">
        <route edges="4520030#4 4520030#5 4520030#6 4520030#7 -278513971#5 -278513971#4 -278513971#2 -278513971#1 -278513971#0 1393204543 38349617#0 1118923884#1 37280968#1 1119851404 161773732#0 161773732#2 161773732#3 313576545#0 37666024#1 456746073 134941605#1 134941607#1 134941607#2 134941607#4 134941607#7 134941607#8 134941607#9 134941607#12 134941607#13 40317927#1 943540703#0 943540703#1 943540703#2 943540702#0 943540702#1 362368395#2 392069507#0"/>
    </vehicle>
    <vehicle id="11" depart="11.00">
        <route edges="-851113021#0 851113021#0 851113021#1 -851139057#3 -851139057#1 -30616063#2 -30616063#1 -30616063#0 -1097574351 38868058#1 37666060#1 37666060#2 142808368#0 -1119418498#1 -1119418498#0 -142808367#2 1381475930#0 1381475930#1 1384702193 155603789#0 155603789#1 155603789#2 155603789#3 155603782 317934876#0 317934876#1 158901372 30816876#0 30816876#1 129552585 30816921#0 4005735#1 392104939#2 42446213#0 42446213#1 300326719#1 300326719#4 300326719#5 300326719#7 -300326719#8 -300326719#5 -300326719#4"/>
    </vehicle>
    <vehicle id="12" depart="12.00">
        <route edges="87602698#5 87602698#6 87602698#7 87602698#10 409064421 1429920605#1 1429920605#3 273936882#8 459027201 -8286442#10 -8286442#9"/>
    </vehicle>
    <vehicle id="13" depart="13.00">
        <route edges="-157188165#0 -30816923#4 -30816923#3 -851167804#3 -851167804#0 157188178#0 157188178#1 157188178#2 157188178#3 -157188178#3 -157188178#2"/>
    </vehicle>
    <vehicle id="14" depart="14.00">
        <route edges="4673739#2 4673739#3 4673739#4 4060426#0 4060426#1 4060426#2 163989143#0 163989143#1 -38349617#1 -1393204543 278513971#0 278513971#1 278513971#2 278513971#4 278513971#5 292630184#1 292630184#2 851177627#0 1418923415#1 39322226#0 39322226#1 39322226#2 39322226#3 -161766362#6 -161766362#3 -161766362#0 -1421993407 -38868689#1 -505114029#2 -505114029#1 -505114029#0 -38868690#2 -38868690#0 4519768 1382820645 1097574335 1097574343 39378780#1 39378780#2 552799309 27807185#10 27807185#11"/>
    </vehicle>
    <vehicle id="15" depart="15.00">
        <route edges="4520030#6 4520030#7 292630184#1 292630184#2 851177627#0 1418923415#1 39322226#0 39322226#1 39322226#2 39322226#3 -161766362#6 -161766362#3 -161766362#0 -1421993407 -38868689#1 -505114029#2 -505114029#1 -505114029#0 -38868690#2 -38868690#0 4519768 1382820645 1097574335 1097574343 39378780#1 39378780#2"/>
    </vehicle>
    <vehicle id="16" depart="16.00">
        <route edges="157107344 -42446213#0 -392104939#2 -392104939#0 -30816921#0 -129552585 -1384165913 -30816876#0 30816864 831762506#0 831762506#1 540351567 93072396#0 93072396#1 93072396#4 93072396#5 93072396#6 93072396#9 392219838#0 151754277#1 410655508#0 -851166562#1 -851166562#0 38906714#1 38906714#2 851115542#1 851113026#0 89840548#5"/>
    </vehicle>
    <vehicle id="17" depart="17.00">
        <route edges="-89840548#0 -89840550#4 -89840550#2 -89840550#1 -89840550#0 -392069505 -34130309#1 -392069506#1 -392069506#0 -392069504 -1168569266#1 -1168569266#0 376401312#1 376401312#2 149935566#1 149935566#2 58561800#1 58561799#0 58561799#1 147557400#1 147557400#3 147557400#4 147557400#6 943542795#0 392103894#0 392103894#1 392103894#2 392103894#3 392103894#4 392103894#5 392103894#6 392103894#7 456746077 1104982515#0 1104982515#2 1104982515#3 456486315#0 456486315#1 456746081#0 93195116 55607475#0 55607475#1 161766797#1 161766797#2 161766797#3"/>
    </vehicle>
    <vehicle id="18" depart="18.00">
        <route edges="4649336#1 4649336#2 4649341#0 4649341#2 80239245#2 80239245#3 310729848#0 89699200#1 151754277#1 410655508#0 -851166562#1 -851166562#0 -851166560#3 -851166560#2 -851166560#1 -851166560#0 -851166559#7 -851166559#5 -851166559#4 -851166559#1 -39322228#3 -310719822#1 -39322227#1 38868689#1 1421993407 161766362#0 161766362#3 161766362#6 -39322226#3 -39322226#2 -39322226#1 -39322226#0 -1418923415#1 -851177627#0 -292630184#2 -292630184#1 -278513971#5 -278513971#4 -278513971#2 -278513971#1 -278513971#0 1393204543 38349617#0 -38349617#1 -1393204543 278513971#0 278513971#1"/>
    </vehicle>
    <vehicle id="19" depart="19.00">
        <route edges="49800591#5 313577316#0 -313577316#0 -49800591#5 -49800591#4 -49800591#3 -49800591#2 -49800591#1 -310707184#2 -310707184#0 -86969970#0 -4592386#1 38159426#1 38159426#3 310707186#0 310707186#3 310707189#0 1418922358#1 1418922358#3 310707192#0 310707192#1 310707192#2 310707192#3 -124559501#1 -124559501#0 236949942#0 236949942#1 236949942#2"/>
    </vehicle>
    <vehicle id="20" depart="20.00">
        <route edges="392103890#0 -93195119#3 -93195119#2 -93195119#1 -16786175#2 -16786175#1 -313577318#3 -313577318#2 -313577318#1 313577317#0 134941607#7 134941607#8 134941607#9 134941607#12 134941607#13 40317927#1 943540703#0 943540703#1 943540703#2 943540702#0 943540702#1 -344664988#1 -344664988#0 -149789269#6 -149789269#5 -149789269#4"/>
    </vehicle>
    <vehicle id="21" depart="21.00">
        <route edges="-40317922#2 -40317922#1 40317927#1 943540703#0 943540703#1 943540703#2 943540702#0 943540702#1 362368395#2 392069507#0 392069507#1 392069507#2 3845812#0 3845812#2 34114237#1 1168569266#1 392069504 1168569265#1 392069506#1 34130309#1 392069505 89840550#0 89840550#1 89840550#2 89840550#4 89840550#5 30603896#0 -89699184#0 -1093404771#1 -1093404771#0 -392219837 -392219838#1 -93072396#9 -93072396#6 -93072396#5 -93072396#4 -93072396#1 -93072396#0 30816863 540351575 540351572 151866851#0 151866851#1 30816875#0 30816875#2 392104943#0 392104943#1 392104943#3 -4649342#7 -4649342#4"/>
    </vehicle>
    <vehicle id="22" depart="22.00">
        <route edges="-155603766#3 -155603766#1 -851166559#1 -39322228#3 -310719822#1 -39322227#1 -1420375294 -151866164#4 -151866164#3 -151866164#2 -151866164#0 -1429920604#3 -1429920604#2 151866165#2 1429920605#0 1429920605#1 1429920605#3 -273936882#6 -273936882#4 -273936882#3 -273936882#2 -273936882#1 -166123298#2 -166123298#1 -166123298#0 -1126018885 -416447051#4 -416447051#3 -416447051#2 -416447051#1 -416447051#0"/>
    </vehicle>
    <vehicle id="23" depart="23.00">
        <route edges="-160488082#1 -49800591#3 -49800591#2 -49800591#1 -310707184#2 -310707184#0 -86969970#0 -4592386#1 38159426#1 38159426#3 310707186#0 310707186#3 310707189#0 1418922359#1 71001814#0 71001814#1 -4645394#5 -4645394#4"/>
    </vehicle>
    <vehicle id="24" depart="24.00">
        <route edges="30603896#0 -89699184#0 -1093404771#1 -1093404771#0 -392219837 -392219838#1 -93072396#9 -93072396#6 -93072396#5 -93072396#4 -93072396#1 -93072396#0 30816863 540351575 540351572 151866851#0 151866851#1 30816876#0 30816876#1 129552585 30816921#0 30816922#1 -851153416#7 -851153416#6 -851153416#2"/>
    </vehicle>
    <vehicle id="25" depart="25.00">
        <route edges="-851166562#0 851166562#0 851166562#1 -410655508#0 -151754277#2 -392219838#1 -93072396#9 -93072396#6 -93072396#5 -93072396#4 -93072396#1 -93072396#0 30816863 540351575 540351572 151866851#0 151866851#1 30816876#0 30816876#1 129552585 30816921#0 4005735#1 392104939#2 42446213#0 -42446213#0 -392104939#2"/>
    </vehicle>
    <vehicle id="26" depart="26.00">
        <route edges="-4520029#7 -4520029#5 -4520029#4 -4520029#3 -4520029#2 -4520029#1 292630184#2 851177627#0 1418923415#1 39322226#0 39322226#1 39322226#2 39322226#3 -161766362#6 -161766362#3 -161766362#0 -1421993407 -38868689#1 -505114029#2 -505114029#1 -505114029#0 -38868690#2 -38868690#0 4519768 1382820645 1097574335 1097574343 39378780#1 39378780#2 552799309 552799310#2 -851153414#9 -851153414#8 -851153414#7 -851153414#6 -851153414#5 -851153414#4 851153414#4 851153414#5 851153414#6"/>
    </vehicle>
    <vehicle id="27" depart="27.00">
        <route edges="310707186#0 310707186#3 310707189#0 1418922359#1 71001814#0 71001814#1 71001814#2 71001814#3 71001814#4 71001814#5 71001814#6 71001814#7 71001814#8 71001814#9 4673703#2 271888999#1 456746073 134941605#1 4003470#1 4003470#2 4003470#3 4003470#4 4003470#5 4003470#6 -186553873#0 -490386700#1 -360485248#0 1421993408#1 37280850#0 37280850#1 345839560#1 345839560#3 -851139057#3 -851139057#1 -114256586#5 -114256586#4 -114256586#1 -114256582#1 -114256582#0 -1263432767#1 -1263432767#0 27822839#10 27822839#11"/>
    </vehicle>
    <vehicle id="28" depart="28.00">
        <route edges="-310707189#1 -310707186#3 -310707186#0 -38159426#3 -38159426#2 146808037#1 146808037#3 456746073 134941605#1 4003470#1 4003470#2 4003470#3 4003470#4 4003470#5 4003470#6 -186553873#0 -490386700#1 -360485248#0 1421993408#1 37280850#0 37280850#1 345839560#1 345839560#3 -851139057#3 -851139057#1 -30616063#2 -30616063#1 -30616063#0 -1097574351 38868058#1 39378780#1"/>
    </vehicle>
    <vehicle id="29" depart="29.00">
        <route edges="-30816876#0 30816864 831762506#0 831762506#1 540351567 93072396#0 93072396#1 93072396#4 93072396#5 93072396#6 93072396#9 392219838#0 151754277#1 410655508#0 -1194937166#0 -151996169 -151996168#2 -151996168#1 -1093404773#2 -89840548#1"/>
    </vehicle>
    <vehicle id="30" depart="30.00">
        <route edges="93195119#3 -93195119#3 -93195119#2 -93195119#1 -16786175#2 -16786175#1 392103894#0 392103894#1 392103894#2 392103894#3 392103894#4 392103894#5 392103894#6 392103894#7 456746077 1104982515#0 1104982515#2 1104982515#3 456486315#0 456486315#1 172457732#0 172457732#1 172457732#2 172457732#3 172457732#4 38759698 313576543#1 1114967668#2 1114967668#3 38759699#0 38759699#1 38759699#2 30816697#2"/>
    </vehicle>
    <vehicle id="31" depart="31.00">
        <route edges="163989143#0 163989143#1 1114967668#2 1114967668#3 38759699#0 38759699#1 38759699#2 38349616#0"/>
    </vehicle>
    <vehicle id="32" depart="32.00">
        <route edges="4673715#2 4673715#3 475919641#0 151866167#2 151866167#3 151866167#4 1429920603#2 4519768"/>
    </vehicle>
    <vehicle id="33" depart="33.00">
        <route edges="-40317922#4 -40317922#3 4645392#1 4645392#3 4645392#5 -313577318#1 313577317#0 -313577316#0 -49800591#5 -49800591#4 -49800591#3 -49800591#2 -49800591#1 -310707184#2 -310707184#0 -86969970#0 -4592386#1 38159426#1 38159426#3 310707186#0 310707186#3 310707189#0 1418922358#1 1418922358#3 310707192#0 310707192#1 310707192#2 310707192#3 -310707192#3 -310707192#2 -310707192#1 -310707192#0 -1418922358#3"/>
    </vehicle>
    <vehicle id="34" depart="34.00">
        <route edges="-58807374#3 -58807374#1 58807374#0 58807374#3 58807374#9 392103893#1 392103893#2 147557401#1 376401315 376401314 376401316#0 376401313#0 376401312#1 376401312#2 149935566#1 149935566#2 58561800#1 58561799#0 58561799#1 147557400#1 147557400#3 147557400#4 147557400#6 943542795#0 392103894#0 392103894#1 392103894#2 392103894#3 392103894#4 392103894#5 392103894#6 392103894#7 -186553873#0 -490386700#1 -360485248#0 -4262232#3 -4262232#2 -4262232#1 -4520029#11 -4520029#10 -4520029#9 -4520029#8 -4520029#7"/>
    </vehicle>
    <vehicle id="35" depart="35.00">
        <route edges="-392104943#0 -30816875#2 -30816875#0 30816864 831762506#0 831762506#1 540351567 93072396#0 93072396#1 93072396#4 93072396#5 93072396#6 93072396#9 392219838#0 151754277#1 410655508#0 -851166562#1 -851166562#0 -851166560#3 -851166560#2 -851166560#1 -851166560#0 -851166559#7 -851166559#5 -851166559#4 851166559#4"/>
    </vehicle>
    <vehicle id="36" depart="36.00">
        <route edges="53530907#1 -1294707328#1 -392088974#1 -392088974#0 -392069508#1 -89840558#4 -89840558#3 -89840558#2 -392088973#1 -89840554#1 89840545#1 89840545#2 89840545#3 89840545#5 89840545#6 89840545#8 89840545#9 -58807374#9 -58807374#3 -58807374#1"/>
    </vehicle>
    <vehicle id="37" depart="37.00">
        <route edges="312549780#1 1418927599#1 24998128#0 24998128#1 -161766362#6 -161766362#3 -161766362#0 -1421993407 -38868689#1 39322227#1 310719822#0 39322228#2 851166559#1 851166559#4 851166559#5 851166559#7 851166560#0 851166560#1 851166560#2 851166560#3 851166562#0 851166562#1 -410655508#0 -151754277#2 34160676#1 1093404771#0 1093404771#1"/>
    </vehicle>
    <vehicle id="38" depart="38.00">
        <route edges="83028197#0 83028197#1 83028197#3 157107344 -42446213#0 -392104939#2 -392104939#0 -30816921#0 -129552585 -1384165913 -30816876#0 30816874#0 30816874#1 -155603789#3 -155603789#2 -155603789#1 -155603789#0 -1384702193 -1381475930#2 -1381475930#0 142808367#1 142808367#3 1119418498#1 -142808368#0 1097574345 39322451#0 1381475936 142786391 4673715#0 4673715#1 4673715#2 4673715#3 475919641#0 151866165#2 1429920605#0 1429920605#1"/>
    </vehicle>
    <vehicle id="39" depart="39.00">
        <route edges="-4520029#2 -4520029#1 292630184#2 851177627#0 1418923415#1 39322226#0 39322226#1 39322226#2 39322226#3 -161766362#6 -161766362#3 -161766362#0 -1421993407 -38868689#1 39322227#1 310719822#0 38868058#1 37666060#1 37666060#2 142808368#0 -1119418498#1 -1119418498#0 -142808367#2 1381475930#0 1381475930#1 1384702193 155603789#0 155603789#1 155603789#2 155603789#3 155603782 317934876#0 317934876#1 158901372 30816876#0 30816876#1 129552585 30816921#0 -123173286#1 -123173286#0 426541999 426542000#1 -4651575 -426542000#0"/>
    </vehicle>
    <vehicle id="40" depart="40.00">
        <route edges="16786171#1 16786171#2 -360485248#0 1421993408#1 37280850#0 37280850#1 -37280852#1 392103885#1 392103885#2 392103885#3 -1125436667#2 -1125436667#1 -1125436667#0 312549779#1 -4520027#6"/>
    </vehicle>
    <vehicle id="41" depart="41.00">
        <route edges="24998222#1 -1421993407 -38868689#1 -1420375294 -151866164#4 -151866164#3 -151866164#2 -151866164#0 -1429920604#3 -1429920604#2 151866165#2 1429920605#0 1429920605#1 1429920605#3 475919640#0 475919640#1 475919640#2 475919639 371866617#0 -786224784#4 -786224784#3 -786224784#2 -786224784#1 -786224784#0 -1136511792#0 749798305#0"/>
    </vehicle>
    <vehicle id="42" depart="42.00">
        <route edges="1093404774#6 155603766#1 155603766#3 155603766#6 155603766#7 155603766#8 155603766#9 155603766#13 155603766#14 155603766#15 -39322009#2"/>
    </vehicle>
    <vehicle id="43" depart="43.00">
        <route edges="943542795#0 16786175#1 16786175#2 93195119#1 93195119#2 93195119#3 39321856#0 155041002#4 155041002#5 -155040999#1 155041000#1"/>
    </vehicle>
    <vehicle id="44" depart="44.00">
        <route edges="-157028289#6 -157028289#5 -157028289#4 -157028289#3 -157028289#2 -157028289#1 -157028289#0 4520027#4 4520027#6 -851177627#0 -292630184#2 -292630184#1 -278513971#5 -278513971#4 -278513971#2 -278513971#1 -278513971#0 1393204543 38349617#0 1118923884#1 37280968#1 1119851404 161773732#0 161773732#2 161773732#3 313576545#0 37666024#1 456746073 134941605#1 134941607#1 134941607#2 134941607#4 134941607#7 134941607#8 134941607#9 134941607#12 134941607#13 40317927#1 943540703#0 943540703#1 943540703#2 943540702#0 943540702#1 -344664988#1 -344664988#0 -149789269#6"/>
    </vehicle>
    <vehicle id="45" depart="45.00">
        <route edges="-166123299#1 166123299#1 166123299#3 273936882#1 273936882#2 273936882#3 273936882#4 273936882#5 273936882#8 459027201 475919642#0 475919642#1 394489297#0 394489297#1 151866167#2 151866167#3 151866167#4 1429920603#2 -328027165 -38868688 -1420375295#4 -1420375295#3 -1420375295#1 -1420375295#0 -29279743#8 -29279743#7 29279743#7"/>
    </vehicle>
    <vehicle id="46" depart="46.00">
        <route edges="4519931#9 851166559#7 851166560#0 851166560#1 851166560#2 851166560#3 851166562#0 851166562#1 -1194937166#0 -151996169 151996169 1194937166#0"/>
    </vehicle>
    <vehicle id="47" depart="47.00">
        <route edges="-154575776#4 -154575776#2 -154575776#1 154575776#1 154575776#2 154575776#4 154575776#5 154575776#9 38906714#1 38906714#2 851115542#1 851113026#0 89840548#5 89840548#7 -89840548#7"/>
    </vehicle>
    <vehicle id="48" depart="48.00">
        <route edges="943540703#1 943540703#2 943540702#0 943540702#1 51476080#2 51476080#3 51476080#4 51476080#5 51476080#6 149935566#1 149935566#2 58561800#1 58561799#0 58561799#1 147557400#1 147557400#3 147557400#4 147557400#6 943542795#0 392103894#0 392103894#1 392103894#2 392103894#3 392103894#4 392103894#5 392103894#6 392103894#7 -186553873#0 -490386700#1 -360485248#0 1421993408#1 37280850#0 37280850#1 -37280852#1 392103885#1 392103885#2 392103885#3 -1125436667#2 -1125436667#1 -1125436667#0 312549779#1 -4520027#6 -4520027#4 157028289#0 157028289#1 157028289#2 157028289#3"/>
    </vehicle>
    <vehicle id="49" depart="49.00">
        <route edges="89840548#1 1093404773#1 151996168#0 151996168#2 151996169 1194937166#0 -851166562#1 -851166562#0 -851166560#3 -851166560#2 -851166560#1 -851166560#0 -851166559#7 -851166559#5 -851166559#4 -851166559#1 -39322228#3 -310719822#1 -39322227#1 -1420375294 -151866164#4 -151866164#3 -151866164#2 -151866164#0 -1429920604#3 -1429920604#2 151866165#2 1429920605#0 1429920605#1 1429920605#3 475919640#0 475919640#1 475919640#2 475919639 371866617#0 1119418549#1 316538694#1 475919644#0 475919644#1"/>
    </vehicle>
    <vehicle id="50" depart="50.00">
        <route edges="-1125436667#2 -1125436667#1 -1125436667#0 1125436667#0 1125436667#1 1125436667#2 -392103885#3 -392103885#2 -392103885#1 -392103885#0 -39322009#13 -39322009#11 -39322009#10 39322009#10 39322009#11"/>
    </vehicle>
    <vehicle id="51" depart="51.00">
        <route edges="38159426#1 38159426#3 310707186#0 310707186#3 310707189#0 1418922359#1 71001814#0 71001814#1 71001814#2 71001814#3 71001814#4 71001814#5 71001814#6 71001814#7 71001814#8 71001814#9 4673703#2 271888999#1 456746073 134941605#1 4003470#1 4003470#2 4003470#3 4003470#4 4003470#5 4003470#6 -186553873#0 -490386700#1 -360485248#0 1421993408#1 37280850#0 37280850#1 345839560#1 345839560#3 -851139057#3 -851139057#1 -30616063#2 -30616063#1 -30616063#0 -1097574351 38868058#1 39378780#1 39378780#2 552799309 -27807185#6 -27807185#3 -27807185#2 -27807185#0 -27807186#2 -27807186#1 -27807186#0 -426542002#1 -426542002#0 -30816923#6 -30816923#5 157188165#0"/>
    </vehicle>
    <vehicle id="52" depart="52.00">
        <route edges="-4520029#7 -4520029#5 -4520029#4 -4520029#3 -4520029#2 -4520029#1 292630184#2 851177627#0 1418923415#1 39322226#0 39322226#1 39322226#2 39322226#3 -161766362#6 -161766362#3 -161766362#0 -1421993407 -38868689#1 39322227#1 310719822#0 39322228#2 851166559#1 851166559#4 851166559#5 851166559#7 851166560#0 851166560#1 851166560#2 851166560#3 851166562#0 851166562#1 -410655508#0 -151754277#2 -392219838#1 -93072396#9 -93072396#6 -93072396#5 -93072396#4 -93072396#1 -93072396#0 30816863"/>
    </vehicle>
    <vehicle id="53" depart="53.00">
        <route edges="-16786175#2 -16786175#1 16786175#1 16786175#2 16786179#1 16786179#2 16786179#4 16786179#7 16786179#9 16786179#12 134929400#1 134929400#2 134929400#3 134929400#4 134929400#7 134929400#8 134929400#9"/>
    </vehicle>
    <vehicle id="54" depart="54.00">
        <route edges="142808367#3 1119418498#1 -142808368#0 1097574345 39322451#0 1381475936 142786391 4673715#0 4673715#1 157032565 87602698#0 87602698#1"/>
    </vehicle>
    <vehicle id="55" depart="55.00">
        <route edges="53530907#0 53530907#1 -1294707328#1 -51508352#3 -51508352#2 -51508352#1 149935566#1 149935566#2 58561800#1 58561799#0 58561799#1 147557400#1 147557400#3 147557400#4 147557400#6 943542795#0 392103894#0 392103894#1 392103894#2 392103894#3 392103894#4 392103894#5 392103894#6 392103894#7 -186553873#0 -490386700#1 -360485248#0 -4262232#3 -4262232#2 -4262232#1 -4520029#11 -4520029#10 -4520029#9 -4520029#8 -4520029#7 -4520029#5 -4520029#4 -4520029#3 -4520029#2 -4520029#1"/>
    </vehicle>
    <vehicle id="56" depart="56.00">
        <route edges="154575774#3 -154575774#3 -154575774#2 -154575774#1 155603789#3 155603782 317934876#0 317934876#1 155603792 831762506#0 831762506#1 540351567 93072396#0 93072396#1 93072396#4 93072396#5 93072396#6 93072396#9 392219838#0 151754277#1 410655508#0 -1194937166#0 -151996169 -151996168#2 -151996168#1 -1093404773#2 -1093404773#0 -1294707328#5 -1294707328#4 -1294707328#3 -1294707328#2 -1294707328#1 -51508352#3 -51508352#2 -51508352#1 149935566#1 149935566#2 58561800#1 58561799#0 58561799#1 147557400#1 147557400#3 147557400#4 147557400#6 943542795#0 -313577318#3"/>
    </vehicle>
    <vehicle id="57" depart="57.00">
        <route edges="83028196#1 -4649342#10 -4649342#8 -392104943#3 -392104943#1 -392104943#0 -30816875#2 -30816875#0 30816864 831762506#0 831762506#1 540351567 93072396#0 93072396#1 93072396#4 93072396#5 93072396#6 93072396#9 392219838#0 151754277#1 410655508#0 -1194937166#0 -151996169 -151996168#2 -151996168#1 -1093404773#2 -1093404773#0 -1294707328#5 -1294707328#4 -1294707328#3 -1294707328#2 -1294707328#1 -51508352#3 -51508352#2 -51508352#1 51508352#1"/>
    </vehicle>
    <vehicle id="58" depart="58.00">
        <route edges="-49800591#1 49800591#1 49800591#2 49800591#3 160488082#1 160488082#2 160488082#3 160488082#4 16786178#0 16786178#1 4003470#1 4003470#2 4003470#3 4003470#4 4003470#5 4003470#6 -186553873#0 -490386700#1 -360485248#0 1421993408#1 37280850#0 37280850#1 345839560#1 345839560#3 -851139057#3 -851139057#1 -30616063#2 -30616063#1 30616063#1 30616063#2"/>
    </vehicle>
    <vehicle id="59" depart="59.00">
        <route edges="27822839#11 -851166559#7 -851166559#5 -851166559#4 -851166559#1 -39322228#3 1097574351 30616063#0 30616063#1 30616063#2 851139057#1 851139057#2 -345839560#4 -345839560#2 -37280850#2 -37280850#0 -1421993408#1 360485248#0 490386700#1 186553873#0 456746077 1104982515#0 1104982515#2 1104982515#3 456486315#0 456486315#1 37666024#1 1118923876#2 37281005#1 37666025#0 4592386#0 86969970#0 725976304 310707184#2 -292962064#2 -292962064#1 -292962064#0"/>
    </vehicle>
    <vehicle id="60" depart="60.00">
        <route edges="4262228#4 39322009#1 39322009#2 39322009#3 39322009#5 39322009#6 39322009#7 39322009#10 39322009#11 39322009#12 345839560#1 345839560#3 -851139057#3 -851139057#1 -30616063#2 -30616063#1 -30616063#0 -1097574351 38868058#1 39378780#1 39378780#2 552799309 552799310#2 -851153414#9 -851153414#8 -851153414#7 -851153414#6 -851153414#5 -851153414#4 157188169"/>
    </vehicle>
    <vehicle id="61" depart="61.00">
        <route edges="4519925#5 4519925#6 4519925#7 456746071 -27822839#15 -27822839#14 -851166559#7 -851166559#5 -851166559#4 -851166559#1 -39322228#3 -310719822#1 -39322227#1 -1420375294 -151866164#4 -151866164#3 -151866164#2 -157028289#7 -157028289#6 -157028289#5 -157028289#4 157028289#4 157028289#5"/>
    </vehicle>
    <vehicle id="62" depart="62.00">
        <route edges="-1093404771#0 -392219837 151754277#1 410655508#0 -851166562#1 -851166562#0 -851166560#3 -851166560#2 -851166560#1 -851166560#0 -851166559#7 -851166559#5 -851166559#4 -851166559#1 -39322228#3 -310719822#1 -39322227#1 -1420375294 -151866164#4 -151866164#3 -151866164#2 -151866164#0 -1429920604#3 -1429920604#2 151866165#2 1429920605#0 1429920605#1 1429920605#3 475919640#0 475919640#1 475919640#2 475919639 371866617#0 -786224784#4 -786224784#3 -786224784#2 -786224784#1 -749798608 -749798305#1"/>
    </vehicle>
    <vehicle id="63" depart="63.00">
        <route edges="-123173286#1 -123173286#0 30816923#2 -851167804#3 -851167804#0 -154575774#3 -154575774#2 -154575774#1 -155603789#2 -155603789#1 -155603789#0 -1384702193 -1381475930#2 -1381475930#0 142808367#1 142808367#3 1119418498#1 -142808368#0 1097574345 39322451#0 1381475936 142786391 4673715#0 4673715#1 4673715#2 424062930 87602698#2 152543150#0 152543150#1 851129969#0 851129969#1 851129968"/>
    </vehicle>
    <vehicle id="64" depart="64.00">
        <route edges="53530910#1 53530907#0 53530907#1 -1294707328#1 -392088974#1 -392088974#0 -392069508#1 -89840558#4 -89840558#3 -89840558#2 -392088973#1 -89840554#1 89840545#1 89840545#2 89840545#3 89840545#5 89840545#6 89840545#8 89840545#9 -58807374#9 4645403#1"/>
    </vehicle>
    <vehicle id="65" depart="65.00">
        <route edges="-51476080#6 -51476080#5 -51476080#4 -51476080#3 -51476080#2 362368395#2 392069507#0 392069507#1 392069507#2 3845812#0 3845812#2 34114237#1 1168569266#1 392069504 1168569265#1 392069506#1 34130309#1 392069505 89840550#0 89840550#1 89840550#2 154470138#1 154470138#4 154470138#5 154470138#6 154470138#7 154470138#8 89840533#6 154470151#0 -154470151#0"/>
    </vehicle>
    <vehicle id="66" depart="66.00">
        <route edges="53530907#6 392069505 89840550#0 89840550#1 89840550#2 89840550#4 89840550#5 30603896#0 -89699184#0 -1093404771#1 -1093404771#0 -392219837 151754277#1 410655508#0 -851166562#1 -851166562#0 851166562#0"/>
    </vehicle>
    <vehicle id="67" depart="67.00">