<routes>
  <vType id="bg_car" vClass="passenger" accel="2.6" decel="4.5" tau="0.7" minGap="0.5" sigma="0.8"/>
  <vehicle id="veh_2514" type="bg_car" depart="0" departPos="random_free" departLane="best">
    <route edges="18465514#3 23450160#7 23450160#8 23450160#9 23450160#10 23450160#11 23450160#12 23450160#13 185058536#2 185058536#3 185058536#4 185058536#5 1329191631#1 185058528#0 185058528#1 185058528#2 185058528#3 185058528#4 185058528#5 908439780#0 -1332977696 -823113820#2 -823113820#1 -823113820#0 1031598838#0 1031598838#1 908439771 908439773#0 908439773#1 1031598830 908439764#0 1086479077 23450364#0 23450364#1 -23450371#7"/>
  </vehicle>
  <vehicle id="veh_87" type="bg_car" depart="1" departPos="random_free" departLane="best">
    <route edges="759538002#0 759538002#1 24062425#0 24062425#1 24062425#3 20135964#6 20135964#8 20135964#9 20135964#10 -452017076#1 -452017076#0 -85686058#3 -85686058#2 -245034346#1 -882081190#3 1083035278#1 1083035278#3 185058533#0 605381683#0 605381683#1 908439786 185067284#0 18465514#1"/>
  </vehicle>
  <vehicle id="veh_1585" type="bg_car" depart="2" departPos="random_free" departLane="best">
    <route edges="23450363#2 659391997#3 -908439780#1 -185058528#5 -185058528#4 -185058528#3 -185058528#2 -185058528#1 -185058528#0 -1329191631#2 -1329191638#1 -185058526#4 -185058526#3 -185058526#2 -185058526#0 -684588907#4 -684588907#3 18465514#1 18465514#2 18465514#3 18465091#0 18465091#1 18465091#3 18465091#4 18465091#5 18465091#6 18465091#7 18465091#8 18465091#9 -237655187#3 -237655187#2 -237655187#1"/>
  </vehicle>
  <vehicle id="veh_933" type="bg_car" depart="3" departPos="random_free" departLane="best">
    <route edges="1314830594 -1314830594 -164833027#3 -164833027#2 -164833027#1 -174946502#5 -174946502#4 -174946502#3 -174946502#2 -894050246#10 -894050246#8 -894050246#7 -894050246#6 -894050246#5 -894050246#3 -894056077#5 -894056077#1 -894056077#0 -1490127520#0 1490127520#0 1490127520#1 894056077#1"/>
  </vehicle>
  <vehicle id="veh_1763" type="bg_car" depart="5" departPos="random_free" departLane="best">
    <route edges="10504038#4 10504038#5 -185067291#9 -185067291#8 -185067291#7 -185067291#6 -185067291#3 -185067291#2 -1329191638#1 -185058526#4 -185058526#3 -185058526#2 -185058526#0 -684588907#4 -684588907#3 -185067284#1 -908439786 908439774#0 908439774#1 -133284396 1295203332#0 242486004#0 242486004#1 85686058#1 85686058#3 452017076#0 452017076#1 20135964#12 20135964#13 4968729#6 4968729#7 1245885190#0 1245885190#1 -894056077#5 -894056077#1 -894056077#0 -1490127520#0 -894056724#2 894056076#0 894056076#2 35050924#0 35050924#2 236207363#0 25005907#1 25005907#2 25005907#5 25005907#6 35071379#0 35071379#1 35071379#2 1120596788#0 1120596788#1 1120596788#3 1120596788#5 1120596788#6 1120596790"/>
  </vehicle>
  <vehicle id="veh_883" type="bg_car" depart="7" departPos="random_free" departLane="best">
    <route edges="149726649#3 149726649#4 149726649#5 -20135964#14 -20135964#12 452017076#3 452017076#4 452017076#5 452017076#6 452017076#7 174946502#1 174946502#3 174946502#4 174946502#5 164833027#1 164833027#2 164833027#3 1044592020#0 1044592020#1"/>
  </vehicle>
  <vehicle id="veh_37" type="bg_car" depart="8" departPos="random_free" departLane="best">
    <route edges="-227488137#4 -227488137#3 -227488137#2 215378307#0 215378307#1 215378307#2 215378307#3 215378307#4 1086479078 908439773#1 1031598830 908439764#0 908439764#1 1086317480 1031598833#0 1031598833#1 823113820#0 823113820#1 823113820#2 1332977696 -908439780#1 -185058528#5 -185058528#4 -185058528#3 -185058528#2 -185058528#1 -185058528#0 -1329191631#2 185067291#1 185067291#3"/>
  </vehicle>
  <vehicle id="veh_2542" type="bg_car" depart="9" departPos="random_free" departLane="best">
    <route edges="25865114#0 25865114#1 25865114#2 25865114#3 229263502#0 229263502#1 138607806#0 138607806#1 85686031 1329880731 4968726#0 4968726#2 4968726#3 4968726#4 4968726#5 934534998#0 1295203332#0 242486004#0 242486004#1 242486004#5 224798062 424023158 4990553#1 96584844#0 448943006#0 448943006#2 85686124 116934894#2"/>
  </vehicle>
  <vehicle id="veh_2568" type="bg_car" depart="9" departPos="random_free" departLane="best">
    <route edges="-18465084#1 -18465084#0 -227481543#1 -227481543#0 -227481544#2 -227481544#1 -227481544#0 -10504041#0 47051542#0 47051542#1 47051542#2 47051542#3 -322896714#6 -322896714#5 -322896714#4 -132526998#20 -132526998#18 -132526998#13 10503056#1 10503056#3 10503056#4 10503056#5 19851823#1"/>
  </vehicle>
  <vehicle id="veh_534" type="bg_car" depart="10" departPos="random_free" departLane="best">
    <route edges="117358266#1 117358266#2 117358266#4 19853890 1029582463#1 1111616928#0 1111616928#1 19405889#0 19405889#2 19405889#5 1111616927 -1111616927 -19405889#5 -19405889#2 -19405889#0"/>
  </vehicle>
  <vehicle id="veh_2804" type="bg_car" depart="10" departPos="random_free" departLane="best">
    <route edges="-185058528#5 -185058528#4 -185058528#3 -185058528#2 -185058528#1 -185058528#0 -1329191631#2 -1329191638#1 -185058526#4 -185058526#3 -185058526#2 -185058526#0 -684588907#4 -684588907#3 -185067284#1 -908439786 908439774#0 908439774#1 -133284396 1295203332#0 242486004#0 242486004#1 242486004#5 224798062 424023158 4990553#1 96584844#0 1040357735#1 1170392273 1170392274"/>
  </vehicle>
  <vehicle id="veh_2533" type="bg_car" depart="11" departPos="random_free" departLane="best">
    <route edges="1019858162#0 533460431#0 533460431#2 224798061 -1019858162#1 96584856#2 1083035278#1 1083035278#3 -185058521#14 -185058521#11 -185058521#10"/>
  </vehicle>
  <vehicle id="veh_2550" type="bg_car" depart="12" departPos="random_free" departLane="best">
    <route edges="-185058536#3 -185058536#2 185058536#2 185058536#3 185058536#4 185058536#5 1329191631#1 185058528#0 185058528#1"/>
  </vehicle>
  <vehicle id="veh_879" type="bg_car" depart="13" departPos="random_free" departLane="best">
    <route edges="-537845637#2 -537845637#1 -537845637#0 537845637#0 537845637#1 537845637#2 537845637#3 537845637#4 537845637#5 -18465091#6 -18465091#5 -18465091#4 -18465091#3 185058521#10 185058521#11 185058521#14 185058533#0 605381683#0 605381683#1 908439786 185067284#0 18465516#1 18465516#2 18465516#4 18465516#5 18465516#6 18465516#7 18465516#8 10504040#0 10504040#1 10504040#2"/>
  </vehicle>
  <vehicle id="veh_2616" type="bg_car" depart="14" departPos="random_free" departLane="best">
    <route edges="-447864153#9 -447864153#8 -447864153#7 -447864153#6 -447864153#5 -447864153#4 -447864153#3 -447864153#2 -447864153#0 447864153#0 447864153#2 447864153#3 447864153#4 447864153#5 447864153#6 447864153#7 447864153#8 447864153#9 1259473093#2 1259473093#3 1259473093#4 -1424964847#1 -1424964847#0 -894050245 -894050252#3 -894050252#2 -894050252#1 -894050249#7 -894050249#6 -894050249#5 -894050249#3 -894050249#2 -452017076#7 -452017076#6 -452017076#5 -452017076#4 -452017076#3 -452017076#1 -452017076#0 -85686058#3 -85686058#2 -245034346#1 -882081190#3 -187379417#8 -187379417#7 -187379417#6 -187379417#5 -187379417#4 94804712#0 94804712#1 25580000#2 237655187#3 -18465091#9 -18465091#8 -18465091#7 -537845637#5 -537845637#4 -537845637#3 -537845637#2"/>
  </vehicle>
  <vehicle id="veh_1976" type="bg_car" depart="15" departPos="random_free" departLane="best">
    <route edges="-322896714#6 -322896714#5 -322896714#4 322896714#2 322896714#5 322896714#6 -47051542#3 -47051542#2 -47051542#1 -47051542#0 10504041#0 10504041#1 227481544#1 227481544#2 227481543#0 227481543#1 185058537#1 185058537#2 185058536#0 185058536#1 185058536#2 185058536#3 185058536#4 185058536#5 185067291#1 185067291#3 185067291#6 185067291#7 185067291#8 185067291#9 185067291#10 185067291#11 185067291#12 -366936429#3 -366936429#2"/>
  </vehicle>
  <vehicle id="veh_2993" type="bg_car" depart="16" departPos="random_free" departLane="best">
    <route edges="-114126839#0 114126839#0 114126839#1 35050924#0 35050924#2 236207363#0 25005907#1 25005907#2 25005907#5 25005907#6 25005907#8 25005907#9 25005907#10 25005907#11 25005907#12 25005907#13 475520128#4 475520128#5 475520128#8 475520128#9 475520128#10 315672341#0 315672341#1 315672341#3 149726649#2 149726649#3 149726649#4 149726649#5 -20135964#14 -20135964#12 -452017076#1 -452017076#0 -85686058#3 -85686058#2 -245034346#1 -882081190#3 -187379417#8 -187379417#7 -187379417#6 -187379417#5 -187379417#4 -187379417#3 -187379417#1 -187379417#0 -11164444#6 -11164444#4 -11164444#3 -1095040000 -672853627#2 -672853627#1 -47051542#3 -47051542#2 -47051542#1 -47051542#0 10504041#0 10504041#1 227481544#1 227481544#2 227481543#0 227481543#1 18465092#0 18465092#1 18465092#3 18465092#4 18465092#6 185058529#2 185058529#4 185058529#5 185058529#6 215378306#0 215378306#1 215378306#2 215378306#3 -227488137#1 -227488137#0"/>
  </vehicle>
  <vehicle id="veh_1222" type="bg_car" depart="17" departPos="random_free" departLane="best">
    <route edges="-185058537#2 -185058537#1 18465084#0 18465084#1 18465084#2 537845637#0 537845637#1 537845637#2 537845637#3 537845637#4 537845637#5 -18465091#6 -18465091#5 -18465091#4 -18465091#3 -185058521#7 -185058521#6 -185058521#5 -185058521#4 -185058521#3 -185058521#2 -185058521#1"/>
  </vehicle>
  <vehicle id="veh_1267" type="bg_car" depart="17" departPos="random_free" departLane="best">
    <route edges="30097367#2 30097367#3 116934895#1 116934895#2 85686124 116934894#2 116934894#3 116934894#4 448943004#1 353233998#0 353233998#2 96584850#1 533460425#0 96584856#2 882081190#3 245034346#0 85686058#1 85686058#3 452017076#0 452017076#1 -20135964#10 -20135964#9"/>
  </vehicle>
  <vehicle id="veh_3219" type="bg_car" depart="18" departPos="random_free" departLane="best">
    <route edges="138607806#0 138607806#1 85686031 1329880731 4968726#0 4968726#2 4968726#3 4968726#4 4968726#5 934534998#0 1295203332#0 242486004#0 242486004#1 85686058#1 85686058#3 452017076#0 452017076#1 20135964#12 20135964#13 4968729#6 4968729#7 1245885190#0 1245885190#1 894050246#2 894050246#5 894050246#6 894050246#7 894050246#8"/>
  </vehicle>
  <vehicle id="veh_3262" type="bg_car" depart="20" departPos="random_free" departLane="best">
    <route edges="1111616921#1 -1111616921#1 -1111616921#0 287080397#2 287080397#3 132526998#1 132526998#4 132526998#5 132526998#6 132526998#7 132526998#11 384531636#1 384531636#3 384531636#4 384531636#5 384531636#6 384531636#7 384531636#9 384531636#10 384531636#11 384531636#12 384531636#13 -384531636#14"/>
  </vehicle>
  <vehicle id="veh_2787" type="bg_car" depart="22" departPos="random_free" departLane="best">
    <route edges="132526998#16 132526998#19 322896714#2 322896714#5 322896714#6 672853627#1 672853627#2 -18465088 -18465089#1 -18465089#0 -18465091#9 -18465091#8 -18465091#7 -18465091#6 -18465091#5 -18465091#4 -18465091#3 185058521#10 185058521#11 23450160#0 23450160#1"/>
  </vehicle>
  <vehicle id="veh_78" type="bg_car" depart="24" departPos="random_free" departLane="best">
    <route edges="-35487655#2 -35487655#0 -1136226787#0 -24062423#1 -24062423#0 242486004#1 242486004#5 224798062 424023158 4990553#1 96584844#0 1040357735#1 1170392273 1170392274 1076614208"/>
  </vehicle>
  <vehicle id="veh_2803" type="bg_car" depart="24" departPos="random_free" departLane="best">
    <route edges="23450371#6 23450371#7 -23450364#1 -23450364#0 -1086479077 908439764#1 1086317480 1031598833#0 1031598833#1 823113820#0 823113820#1 823113820#2 1332977696 -908439780#1 -185058528#5 -185058528#4 -185058528#3 -185058528#2 -185058528#1 -185058528#0 -1329191631#2 -185058536#6 -185058536#4 -185058536#3 -185058536#2 -185058536#1 -185058536#0 -185058537#2 -185058537#1 -227481543#1 -227481543#0 -227481544#2 -227481544#1 -227481544#0 -10504041#0 47051542#0 47051542#1 47051542#2 47051542#3 -322896714#6 -322896714#5 -322896714#4 -132526998#20 -132526998#18"/>
  </vehicle>
  <vehicle id="veh_3093" type="bg_car" depart="24" departPos="random_free" departLane="best">
    <route edges="287080397#3 132526998#1 132526998#4 132526998#5 132526998#6 132526998#7 132526998#11 132526998#16 132526998#19 322896714#2 322896714#5 322896714#6 672853627#1 672853627#2 -18465088 -18465089#1 -18465089#0 -18465091#9 -18465091#8 -18465091#7 -537845637#5 -537845637#4"/>
  </vehicle>
  <vehicle id="veh_331" type="bg_car" depart="27" departPos="random_free" departLane="best">
    <route edges="-174946502#2 -452017076#7 -452017076#6 -452017076#5 -452017076#4 -452017076#3 -452017076#1 -452017076#0 -85686058#3 -85686058#2 -245034346#1 -882081190#3 -187379417#8 -187379417#7 -187379417#6 -187379417#5 -187379417#4 -187379417#3 -187379417#1 -187379417#0 -11164444#6 -11164444#4 -11164444#3 -1095040000 -672853627#2 -672853627#1 -47051542#3 -47051542#2 -47051542#1 -47051542#0 10504041#0 10504041#1 227481544#1 227481544#2 227481543#0 227481543#1 18465092#0 18465092#1 18465092#3 18465092#4 18465092#6 185058529#2 185058529#4 185058529#5 185058529#6 215378306#0 215378306#1 215378306#2 215378306#3 227488137#2 227488137#3 227488137#4"/>
  </vehicle>
  <vehicle id="veh_1371" type="bg_car" depart="27" departPos="random_free" departLane="best">
    <route edges="23450160#13 -185058536#1 -185058536#0 -185058537#2 -185058537#1 -227481543#1 -227481543#0 -227481544#2 -227481544#1 -227481544#0 -10504041#0 47051542#0 47051542#1 47051542#2 47051542#3 -322896714#6 -322896714#5 -322896714#4 -132526998#20 -132526998#18 19851819#1 19851819#2 19851819#4 19851819#5 19851819#9 19851819#10 19851819#11 19851819#12 19851812#3 19851812#4 19851812#5 19851812#6 19851812#7 19851812#8 19851812#9 19851812#12 19851812#13 19851812#14 19851812#15 570082852#0 570082852#2 570082851#0 570082851#1 570082851#2"/>
  </vehicle>
  <vehicle id="veh_1455" type="bg_car" depart="27" departPos="random_free" departLane="best">
    <route edges="-955391212#1 -955391212#0 -430560541 -955391213 116934893#0 116934893#1 -430560538#2 132526998#1 132526998#4 132526998#5 132526998#6 132526998#7 132526998#11 132526998#16 132526998#19 322896714#2 322896714#5 322896714#6 672853627#1 672853627#2 1095040000 11164444#3 11164444#4 11164444#6 187379417#0 187379417#1 187379417#3 187379417#4 187379417#5 187379417#6 187379417#7 187379417#8 882081190#3 245034346#0 85686058#1 85686058#3 452017076#0 452017076#1 452017076#3 452017076#4 452017076#5 452017076#6 452017076#7 894050249#1 894050249#3 894050249#5 894050249#6 894050249#7 894050252#1 894050252#2 894050252#3 894050245 1424964847#0 1424964847#1 -1259473093#4 -1259473093#3 -1259473093#2 -447864153#9 -447864153#8 -447864153#7 -447864153#6 -447864153#5 -447864153#4 -447864153#3 -447864153#2 -447864153#0 1167948105#0 1167948105#1 1003013516"/>
  </vehicle>
  <vehicle id="veh_1920" type="bg_car" depart="30" departPos="random_free" departLane="best">
    <route edges="185058537#2 -185058537#2 -185058537#1 18465084#0 18465084#1 18465084#2 537845637#0 537845637#1 537845637#2 537845637#3 537845637#4 537845637#5 -537845637#5"/>
  </vehicle>
  <vehicle id="veh_2554" type="bg_car" depart="34" departPos="random_free" departLane="best">
    <route edges="23450371#3 23450371#4 -242209006#4 -242209006#3 -242209006#2 -242209006#1 -242209006#0 823113820#1 823113820#2 1332977696 -908439780#1 -185058528#5 -185058528#4 -185058528#3 -185058528#2 -185058528#1 -185058528#0 -1329191631#2 185067291#1 185067291#3 185067291#6 185067291#7 185067291#8 185067291#9 185067291#10 185067291#11 185067291#12 185067291#14 185067291#15 185067291#16 229263502#0 229263502#1 138607806#0 138607806#1 138607814#2 138607814#3 -229263502#1"/>
  </vehicle>
  <vehicle id="veh_589" type="bg_car" depart="35" departPos="random_free" departLane="best">
    <route edges="1442675772#0 122225818#2 122225818#3 -384531636#14 -384531636#12 -384531636#11 -384531636#10 -384531636#9 -384531636#7 -384531636#6 -384531636#5 -384531636#4 -384531636#3 -384531636#2 -132526998#13 -132526998#8 -132526998#6 -132526998#5 -132526998#4 -132526998#2 -287080397#4 -287080397#2 1111616921#0"/>
  </vehicle>
  <vehicle id="veh_2632" type="bg_car" depart="35" departPos="random_free" departLane="best">
    <route edges="-1136226792#0 1136226792#0 -35487655#0 -1136226787#0 -24062423#1 -24062423#0 242486004#1 -245034346#1 -882081190#3 1083035278#1 1083035278#3 185058533#0 605381683#0 605381683#1 908439786 185067284#0 18465516#1 18465516#2 18465516#4 18465516#5 18465516#6 18465516#7 18465516#8 10504040#0 10504040#1 10504040#2 10504040#3 10504040#4 185067291#10 185067291#11 185067291#12 366936429#4 366936429#5 366936429#6 366936429#7 -366936429#7 -366936429#6"/>
  </vehicle>
  <vehicle id="veh_3073" type="bg_car" depart="35" departPos="random_free" departLane="best">
    <route edges="23450364#6 -23450364#6 -23450364#5 -23450364#4 -23450364#1 -23450364#0 -1086479077 908439764#1 1086317480 1031598833#0 1031598833#1 823113820#0 823113820#1 823113820#2 1332977696 100490698#1 1031140718#0 1031140718#2 368171392#1 368171392#2 683311787 683311788#0"/>
  </vehicle>
  <vehicle id="veh_3199" type="bg_car" depart="36" departPos="random_free" departLane="best">
    <route edges="894050249#7 -894050249#7 -894050249#6 -894050249#5 -894050249#3 -894050249#2 174946502#1 174946502#3 174946502#4 174946502#5 164833027#1 164833027#2 164833027#3 1044592020#0 1044592020#1 -1126009754"/>
  </vehicle>
  <vehicle id="veh_2292" type="bg_car" depart="38" departPos="random_free" departLane="best">
    <route edges="-894050252#3 -894050252#2 -894050252#1 -894050249#7 -894050249#6 -894050249#5 -894050249#3 -894050249#2 -452017076#7 -452017076#6 -452017076#5 -452017076#4 -452017076#3 -452017076#1 -452017076#0 -85686058#3 -85686058#2 -245034346#1 -882081190#3 -187379417#8 -187379417#7 -187379417#6 -187379417#5 -187379417#4 -187379417#3 -187379417#1 -187379417#0 -11164444#6 -11164444#4 -11164444#3 -1095040000 -672853627#2 -672853627#1 -47051542#3 -47051542#2 -47051542#1 -47051542#0 10504041#0 10504041#1 227481544#1 227481544#2 227481543#0 227481543#1 18465092#0 18465092#1 18465092#3 18465092#4 18465092#6 185058529#2 185058529#4 185058529#5 185058529#6 215378306#0 215378306#1 215378306#2 215378306#3 227488137#2 227488137#3 227488137#4"/>
  </vehicle>
  <vehicle id="veh_464" type="bg_car" depart="39" departPos="random_free" departLane="best">
    <route edges="131117037#4 131117037#5 131117037#6 131117037#7 131117037#9 131117037#10 131117037#11 1040357733#0 1040357733#1 1040357733#2 1040357733#3 1040357733#5 1040357733#6 1040357733#7 1040357733#8 448943004#1 353233998#0 353233998#2 96584850#1 533460425#0 1019858162#0 533460431#0 533460431#2 4968729#1 4968729#2 4968729#6 4968729#7 1245885190#0 1245885190#1 149726649#2 149726649#3 149726649#4 149726649#5"/>
  </vehicle>
  <vehicle id="veh_2893" type="bg_car" depart="39" departPos="random_free" departLane="best">
    <route edges="20135964#6 20135964#8 20135964#9 20135964#10 -452017076#1 -452017076#0 -85686058#3 -85686058#2 -245034346#1 -882081190#3 -187379417#8 -187379417#7 -187379417#6 -187379417#5 -187379417#4 -187379417#3 -187379417#1 -187379417#0 -11164444#6 -11164444#4 -11164444#3 -1095040000 -672853627#2 -672853627#1 -47051542#3 -47051542#2 -47051542#1 -47051542#0 10504041#0 10504041#1 227481544#1 227481544#2 227481543#0 227481543#1 185058537#1 185058537#2 185058536#0 185058536#1 185058536#2 185058536#3 185058536#4 185058536#5 1329191631#1 185058528#0 185058528#1 185058528#2 185058528#3 185058528#4 185058528#5 908439780#0 -1332977696 -823113820#2 -823113820#1 242209006#0 242209006#1 242209006#2 242209006#3 242209006#4 23450371#6"/>
  </vehicle>
  <vehicle id="veh_3145" type="bg_car" depart="39" departPos="random_free" departLane="best">
    <route edges="-1170392274 -1170392273 1040357736#0 448943004#1 353233998#0 353233998#2 96584850#1 533460425#0 96584856#2 -187379417#8 -187379417#7 -187379417#6 -187379417#5 -187379417#4 -187379417#3 -187379417#1 -187379417#0 -11164444#6 -11164444#4 -11164444#3 -1095040000 -672853627#2 -672853627#1 -47051542#3 -47051542#2 -47051542#1 -47051542#0 10504041#0 10504041#1 227481544#1 227481544#2 227481543#0 227481543#1 185058537#1 185058537#2 185058536#0 185058536#1 185058536#2 185058536#3 185058536#4 185058536#5 185067291#1 185067291#3 185067291#6 -185067291#6"/>
  </vehicle>
  <vehicle id="veh_1537" type="bg_car" depart="40" departPos="random_free" departLane="best">
    <route edges="-185058528#0 -1329191631#2 -185058536#6 -185058536#4 -185058536#3 -185058536#2 -185058536#1 -185058536#0 -185058537#2 -185058537#1 -227481543#1 -227481543#0 -227481544#2 -227481544#1 -227481544#0 -10504041#0 47051542#0 47051542#1 47051542#2 47051542#3 -322896714#6 -322896714#5 -322896714#4 -132526998#20 -132526998#18 -132526998#13 -132526998#8 -132526998#6 -132526998#5 -132526998#4 -132526998#2 430560538#1 -116934893#1 -116934893#0"/>
  </vehicle>
  <vehicle id="veh_1304" type="bg_car" depart="41" departPos="random_free" departLane="best">
    <route edges="23450371#2 23450371#3 23450371#4 -242209006#4 -242209006#3 -242209006#2 -242209006#1 -242209006#0 823113820#1 823113820#2 1332977696 -908439780#1 -185058528#5 -185058528#4 -185058528#3 -185058528#2 -185058528#1 -185058528#0 -1329191631#2 -1329191638#1 -185058526#4 -185058526#3 -185058526#2 -185058526#0 -684588907#4 -684588907#3 -185067284#1 -908439786 908439774#0 908439774#1 -133284396 1295203332#0 242486004#0 242486004#1 85686058#1 85686058#3 452017076#0 452017076#1 20135964#12 20135964#13 4968729#6 4968729#7 1245885190#0 1245885190#1 -894056077#5 -894056077#1 -894056077#0 -1490127520#0 -894056724#2 894056076#0 894056076#2 35050924#0 35050924#2 236207363#0 236207363#1 314154282#1 458050126#0 -236214854#2"/>
  </vehicle>
  <vehicle id="veh_3483" type="bg_car" depart="41" departPos="random_free" departLane="best">
    <route edges="-384531636#7 -384531636#6 -384531636#5 -384531636#4 -384531636#3 -384531636#2 132526998#16 132526998#19 201738830#2 1155114055 149725201#0 149725201#1 149725201#2 462566234 85686071#0 533460422 96584838 1078933887#1 894056076#0 894056076#2 35050924#0 35050924#2 236207363#0 25005907#1 25005907#2 25005907#5 25005907#6 25005907#8 25005907#9 25005907#10 25005907#11 25005907#12 25005907#13 475520128#4 475520128#5 475520128#8 -1346162666#0 -175109053#1 -175109053#0"/>
  </vehicle>
  <vehicle id="veh_1568" type="bg_car" depart="42" departPos="random_free" departLane="best">
    <route edges="236207343#2 236214854#1 207977246#0 207977246#1 1424763807#0 1424763807#1 457928264#0 457928264#2 894056073 1272871058#2 1490127520#0 1490127520#1 894056077#1 894056077#5 149726649#2 149726649#3 149726649#4 149726649#5 -20135964#14 -20135964#12 -452017076#1 -452017076#0 -85686058#3 -85686058#2 -245034346#1 -882081190#3 -187379417#8 -187379417#7 -187379417#6 -187379417#5 -187379417#4 -187379417#3 -187379417#1 -187379417#0 -11164444#6 -11164444#4 -11164444#3 -1095040000 -672853627#2 -672853627#1 -47051542#3 -47051542#2 -47051542#1 -47051542#0 10504041#0 10504041#1 227481544#1 227481544#2 227481543#0 227481543#1 -227481543#1 -227481543#0 -227481544#2 -227481544#1"/>
  </vehicle>
  <vehicle id="veh_1682" type="bg_car" depart="43" departPos="random_free" departLane="best">
    <route edges="120427582#1 120427582#2 120427582#3 120427582#4 120427582#5 120427582#6 -894050252#2 -894050252#1 -894050249#7 -894050249#6 -894050249#5 -894050249#3 -894050249#2 -452017076#7 -452017076#6 -452017076#5 -452017076#4 -452017076#3 -452017076#1 -452017076#0 -85686058#3 -85686058#2 -245034346#1 -882081190#3 1083035278#1 1083035278#3 185058533#0 605381683#0 605381683#1 908439786 -908439786"/>
  </vehicle>
  <vehicle id="veh_1182" type="bg_car" depart="44" departPos="random_free" departLane="best">
    <route edges="25569436#1 137075981 537845638#0 537845637#0 537845637#1 537845637#2 537845637#3 537845637#4 537845637#5 18465091#7 18465091#8 18465091#9 -237655187#3 -25580000#2 -1135886690#0 -94804712#0 187379417#4 187379417#5 187379417#6 187379417#7 187379417#8 882081190#3 245034346#0 85686058#1 85686058#3 452017076#0 452017076#1 452017076#3 452017076#4 452017076#5 452017076#6 452017076#7 894050249#1 894050249#3 894050249#5 894050249#6 894050249#7 1433974197#0 1433974197#1 10697966#0 10697966#1 10697966#2 24062875#0 24062875#1 24062875#2 845107005#0 24062876#1 24062876#2 24062876#3 24062876#4 -1044592022#1"/>
  </vehicle>
  <vehicle id="veh_1842" type="bg_car" depart="44" departPos="random_free" departLane="best">
    <route edges="-185058529#6 -185058529#5 -185058529#4 -185058529#3 -18465092#7 -18465092#4 -18465092#3 -18465092#1 -18465092#0 -227481543#1 -227481543#0 -227481544#2 -227481544#1 -227481544#0 -10504041#0 47051542#0 47051542#1 47051542#2 47051542#3 672853627#1 672853627#2 1095040000 11164444#3 11164444#4 11164444#6 187379417#0 187379417#1 187379417#3 187379417#4 187379417#5 187379417#6 187379417#7 187379417#8 882081190#3 245034346#0 242486004#5 224798062 424023158 4990553#1 96584844#0 448943006#0 96583698#1"/>
  </vehicle>
  <vehicle id="veh_2631" type="bg_car" depart="45" departPos="random_free" departLane="best">
    <route edges="187379417#6 187379417#7 187379417#8 -187379417#8 -187379417#7 -187379417#6 -187379417#5 -187379417#4 -187379417#3 -187379417#1 -187379417#0 -11164444#6 -11164444#4 -11164444#3 -1095040000 -672853627#2 -672853627#1 -322896714#6 -322896714#5 -322896714#4 -132526998#20 -132526998#18 384531636#1 384531636#3 384531636#4 384531636#5 384531636#6 384531636#7 384531636#9 384531636#10"/>
  </vehicle>
  <vehicle id="veh_457" type="bg_car" depart="46" departPos="random_free" departLane="best">
    <route edges="1433974197#0 1433974197#1 10697966#0 10697966#1 -10697966#1 -10697966#0 -1433974197#1 -1433974197#0 -894050249#7 -894050249#6 -894050249#5 -894050249#3 -894050249#2 -894050246#10 -894050246#8 -894050246#7 -894050246#6 -894050246#5 -894050246#3 -894056077#5 -894056077#1 -894056077#0 -1490127520#0 -894056724#2 894056076#0 894056076#2 35050924#0 35050924#2 236207363#0 25005907#1 25005907#2 25005907#5 25005907#6 25005907#8 25005907#9 25005907#10 25005907#11 25005907#12 25005907#13 475520128#4"/>
  </vehicle>
  <vehicle id="veh_1997" type="bg_car" depart="46" departPos="random_free" departLane="best">
    <route edges="-185058537#2 -185058537#1 -227481543#1 -227481543#0 -227481544#2 -227481544#1 -227481544#0 -10504041#0 47051542#0 47051542#1 47051542#2 47051542#3 672853627#1 672853627#2 1095040000 11164444#3 11164444#4 11164444#6 187379417#0 187379417#1 187379417#3 187379417#4 187379417#5 187379417#6 187379417#7 187379417#8 882081190#3 245034346#0 85686058#1 85686058#3 452017076#0 452017076#1 20135964#12 20135964#13 4968729#6 4968729#7 1245885190#0 1245885190#1 -894056077#5 -894056077#1 -894056077#0 -1490127520#0 -894056724#2 894056076#0 894056076#2 35050924#0 35050924#2 236207363#0 236207363#1 314154282#1 458050126#0 -236214854#2 -236207343#2 -236207343#1 -236207343#0 236207343#0"/>
  </vehicle>
  <vehicle id="veh_1077" type="bg_car" depart="47" departPos="random_free" departLane="best">
    <route edges="-537845637#1 -537845637#0 -18465084#2 -18465084#1 -18465084#0 185058537#1 185058537#2 185058536#0 185058536#1 185058536#2 185058536#3 185058536#4 185058536#5 1329191631#1 185058528#0 185058528#1 185058528#2 185058528#3 185058528#4 185058528#5 908439780#0 -1332977696 -823113820#2 -823113820#1 -823113820#0 1031598838#0 1031598838#1 908439771 908439773#0 908439773#1 1031598830 908439764#0 1086479077 23450364#0 23450364#1 23450372#2 23450372#3 23450372#4 -23450372#4 -23450372#3 -23450372#2"/>
  </vehicle>
  <vehicle id="veh_3031" type="bg_car" depart="47" departPos="random_free" departLane="best">
    <route edges="-1111616927 -19405889#5 -19405889#2 -19405889#0 -1111616928#1 -1111616928#0 -1111616921#1 -1111616921#0 287080397#2 287080397#3 132526998#1 132526998#4 132526998#5 132526998#6 132526998#7 132526998#11 132526998#16 132526998#19 322896714#2 322896714#5 322896714#6 672853627#1 672853627#2 1095040000 11164444#3 11164444#4 11164444#6 187379417#0 187379417#1 187379417#3 187379417#4 187379417#5 187379417#6 187379417#7 187379417#8 882081190#3 245034346#0 85686058#1 85686058#3 452017076#0 452017076#1 452017076#3 452017076#4 452017076#5 452017076#6 452017076#7 894050249#1 894050249#3 894050249#5 894050249#6 894050249#7 894050252#1 894050252#2 894050252#3 894050245 1424964847#0 1424964847#1 -1259473093#4 -1259473093#3 -1259473093#2 193100973#0 193100973#1"/>
  </vehicle>
  <vehicle id="veh_2931" type="bg_car" depart="48" departPos="random_free" departLane="best">
    <route edges="138607806#1 85686031 1329880731 4968726#0 4968726#2 4968726#3 4968726#4 4968726#5 934534998#0 1295203332#0 242486004#0 242486004#1 -245034346#1 -882081190#3 1083035278#1"/>
  </vehicle>
  <vehicle id="veh_889" type="bg_car" depart="49" departPos="random_free" departLane="best">
    <route edges="24062875#0 24062875#1 24062875#2 1152480959#1 120427582#0 120427582#1 120427582#2 120427582#3 120427582#4 120427582#5 120427582#6 -894050252#2 -894050252#1 -894050249#7 -894050249#6 -894050249#5 -894050249#3 -894050249#2 -452017076#7 -452017076#6 -452017076#5 -452017076#4 -452017076#3 -452017076#1 -452017076#0 -85686058#3 -85686058#2 -245034346#1 -882081190#3"/>
  </vehicle>
  <vehicle id="veh_185" type="bg_car" depart="50" departPos="random_free" departLane="best">
    <route edges="315672341#0 315672341#1 315672341#3 149726649#2 149726649#3 149726649#4 149726649#5 149726649#9 224798062 424023158 4990553#1 96584844#0 -1040357733#8 -1040357733#7 -1040357733#6 -1040357733#5 -1040357733#3 -1040357733#2 -1040357733#1 -1040357733#0 -131117037#11 -131117037#10 -131117037#9 -131117037#7 -131117037#6 131117037#6 131117037#7 131117037#9"/>
  </vehicle>
  <vehicle id="veh_593" type="bg_car" depart="51" departPos="random_free" departLane="best">