<?xml version="1.0" encoding="UTF-8"?>

<!-- generated on 2026-04-12 23:18:43.844339 by randomTrips.py UNKNOWN
<configuration>
    <net-file value="network.net.xml"/>
    <route-file value="routes.rou.xml"/>
    <validate value="True"/>
    <end value="1000.0"/>
</configuration>
-->

<!-- generated on 2026-04-12 23:18:43 by Eclipse SUMO duarouter Version 1.18.0
<configuration xmlns:xsi="http://www.w3.org/2001/XMLSchema-instance" xsi:noNamespaceSchemaLocation="http://sumo.dlr.de/xsd/duarouterConfiguration.xsd">

    <input>
        <net-file value="network.net.xml"/>
        <route-files value="trips.trips.xml"/>
    </input>

    <output>
        <output-file value="routes.rou.xml"/>
        <alternatives-output value="NUL"/>
    </output>

    <time>
        <begin value="0"/>
        <end value="1000.0"/>
    </time>

    <report>
        <no-warnings value="true"/>
        <ignore-errors value="true"/>
        <no-step-log value="true"/>
    </report>

</configuration>
-->

<routes xmlns:xsi="http://www.w3.org/2001/XMLSchema-instance" xsi:noNamespaceSchemaLocation="http://sumo.dlr.de/xsd/routes_file.xsd">
    <vehicle id="0" depart="0.00">
        <route edges="187379417#4 187379417#5 187379417#6 187379417#7 187379417#8 882081190#3 245034346#0 85686058#1 85686058#3 452017076#0 452017076#1 452017076#3 452017076#4 452017076#5 452017076#6 452017076#7 174946502#1 174946502#3 174946502#4 174946502#5 164833027#1 164833027#2 164833027#3 -1044592021#1 -1044592021#0 -1044592022#4"/>
    </vehicle>
    <vehicle id="1" depart="1.00">
        <route edges="-366936429#7 -366936429#6 -366936429#5 -366936429#4 -185067291#12 -185067291#11 -185067291#10 -185067291#9 -185067291#8 -185067291#7 -185067291#6 -185067291#3 -185067291#2 1329191631#1 185058528#0 185058528#1 185058528#2 185058528#3 185058528#4 185058528#5 908439780#0 -1332977696 -823113820#2 -823113820#1 -823113820#0 1031598838#0 1031598838#1 908439771 908439773#0 908439773#1 1031598830 908439764#0 1086479077 23450364#0 23450364#1 -23450371#7 -23450371#6"/>
    </vehicle>
    <vehicle id="2" depart="2.00">
        <route edges="23450366#1 215378307#2 215378307#3 215378307#4 1086479078 908439773#1 1031598830 908439764#0 908439764#1 1086317480 1031598833#0 1031598833#1 823113820#0 823113820#1 823113820#2 1332977696 100490698#1 1031140718#0 1031140718#2 368171392#1 368171392#2 683311787 683311788#0 1442675773#2 240546185#0 1442676221 1324652641#0 1324652641#1 -132526998#20 -132526998#18 -132526998#13 10503056#1 10503056#3 10503056#4 10503056#5 19851823#1"/>
    </vehicle>
    <vehicle id="3" depart="3.00">
        <route edges="533460422 96584838 1078933887#1 -894056073 4968735#0 4968735#2 1324742919#0 1324742919#1 1491071955 457926608 353233997 96584852#0 85686097#2 85686097#3 85686097#4 85686097#5 85686097#7 -132526998#20 -132526998#18 -132526998#13"/>
    </vehicle>
    <vehicle id="4" depart="4.00">
        <route edges="10504040#4 -185067291#9 -185067291#8 -185067291#7 -185067291#6 -185067291#3 -185067291#2 -185058536#6 -185058536#4 -185058536#3 -185058536#2 -185058536#1 -185058536#0 -185058537#2 -185058537#1 -227481543#1 -227481543#0 -227481544#2 -227481544#1 -227481544#0 -10504041#0 47051542#0 47051542#1 47051542#2 47051542#3 -322896714#6 -322896714#5 -322896714#4 -132526998#20 -132526998#18 -132526998#13 10503056#1 10503056#3 10503056#4 10503056#5 -10503056#5 -10503056#4 -10503056#3 -10503056#2"/>
    </vehicle>
    <vehicle id="5" depart="5.00">
        <route edges="-23450195#6 -23450195#5 -23450195#4 -23450195#3 -23450195#1 -23450195#0 -185067291#6 -185067291#3 -185067291#2 -185058536#6 -185058536#4 -185058536#3 -185058536#2 -185058536#1 -185058536#0 -185058537#2 -185058537#1 -227481543#1 -227481543#0 -227481544#2 -227481544#1 -227481544#0 -10504041#0 47051542#0 47051542#1 47051542#2 47051542#3 -322896714#6 -322896714#5 -322896714#4 -132526998#20 -132526998#18 -132526998#13 131117037#1 131117037#3 131117037#4 131117037#5"/>
    </vehicle>
    <vehicle id="6" depart="6.00">
        <route edges="-1044592025#1 -116934897#3 -116934897#2 -116934897#0 -1044592026 1044592026 116934897#0 116934897#2 116934897#3 1044592025#0 132526998#1 132526998#4 132526998#5 132526998#6 132526998#7 132526998#11 132526998#16 132526998#19 322896714#2 322896714#5 322896714#6 -47051542#3 -47051542#2 -47051542#1 -47051542#0 10504041#0 10504041#1 227481544#1 227481544#2 227481543#0 227481543#1 -227481543#1 -227481543#0"/>
    </vehicle>
    <vehicle id="7" depart="7.00">
        <route edges="19851811#0 19851811#1 19851811#3 -19851811#3 -19851811#1 -19851811#0 -384531636#5 -384531636#4 -384531636#3 -384531636#2 132526998#16 132526998#19 322896714#2 322896714#5 322896714#6 672853627#1 672853627#2 1095040000 11164444#3 11164444#4 11164444#6 187379417#0 187379417#1 187379417#3 187379417#4 187379417#5 187379417#6 187379417#7 187379417#8 882081190#3 245034346#0 85686058#1 85686058#3 452017076#0 452017076#1 452017076#3 452017076#4 452017076#5 452017076#6 452017076#7 894050249#1 894050249#3 894050249#5 894050249#6 894050249#7 894050252#1 894050252#2 894050252#3 894050245 1424964847#0 1424964847#1 -1259473093#4 -1259473093#3 -1259473093#2 193100973#0 193100973#1 193100973#2 1424964848#0"/>
    </vehicle>
    <vehicle id="8" depart="8.00">
        <route edges="-23450195#8 -23450195#7 -23450195#6 -23450195#5 -23450195#4 -23450195#3 -23450195#1 -23450195#0 -185067291#6 -185067291#3 -185067291#2 -185058536#6 -185058536#4 -185058536#3 -185058536#2 -185058536#1 -185058536#0 -185058537#2 -185058537#1 18465092#0 18465092#1 18465092#3"/>
    </vehicle>
    <vehicle id="9" depart="9.00">
        <route edges="30097367#1 30097367#2 30097367#3 116934895#1 116934895#2 85686124 116934894#2 116934894#3 116934894#4 1040357735#1 1170392273 1170392274 1076614208 1040360727#1 1040360727#2 -10307690#1 -10307690#0"/>
    </vehicle>
    <vehicle id="10" depart="10.00">
        <route edges="287080397#3 132526998#1 132526998#4 132526998#5 132526998#6 132526998#7 132526998#11 132526998#16 132526998#19 132526994#0 132526994#1 132526994#2 1442675772#0 122225824#1 122225824#2 122225824#3 122225824#4 185058529#2 185058529#4 185058529#5 185058529#6 215378306#0 215378306#1 215378306#2 215378306#3"/>
    </vehicle>
    <vehicle id="11" depart="11.00">
        <route edges="-894050246#5 -894050246#3 894050246#2 894050246#5 894050246#6 894050246#7 894050246#8 894050246#9 -452017076#7 -452017076#6 -452017076#5 -452017076#4 -452017076#3 -452017076#1 -452017076#0 -85686058#3 -85686058#2 -245034346#1 -882081190#3 1083035278#1 1083035278#3 -185058521#14 -185058521#11 -185058521#10 -185058521#7 -185058521#6 -185058521#5 -185058521#4 -185058521#3 -185058521#2 -185058521#1 -185058521#0 -185058537#2 -185058537#1"/>
    </vehicle>
    <vehicle id="12" depart="12.00">
        <route edges="894050249#1 894050249#3 894050249#5 894050249#6 894050249#7 -894050249#7 -894050249#6 -894050249#5 -894050249#3 -894050249#2 -894050246#10 -894050246#8 -894050246#7"/>
    </vehicle>
    <vehicle id="13" depart="13.00">
        <route edges="-132526998#20 -132526998#18 132526998#16 132526998#19 132526994#0 132526994#1 132526994#2 1442675772#0 122225824#1 122225824#2 122225824#3 122225824#4 659391997#1 659391997#2 659391997#3 -1332977696 -823113820#2 -823113820#1 -823113820#0 1031598838#0 1031598838#1 908439771 908439773#0 908439773#1 1031598830 908439764#0 1086479077 23450364#0 23450364#1 23450372#2 23450372#3 23450372#4 1333029209 -137389175#2 -137389175#1 -137389175#0"/>
    </vehicle>
    <vehicle id="14" depart="14.00">
        <route edges="447864153#3 447864153#4 447864153#5 447864153#6 447864153#7 447864153#8 447864153#9 1259473093#2 1259473093#3 1259473093#4 -1424964847#1 -1424964847#0 -894050245 -894050252#3 -894050252#2 -894050252#1 -894050249#7 -894050249#6 -894050249#5 -894050249#3 -894050249#2 -452017076#7 -452017076#6 -452017076#5 -452017076#4 -452017076#3 -452017076#1 -452017076#0 -85686058#3 -85686058#2 -245034346#1 -882081190#3 1083035278#1 1083035278#3 -185058521#14 -185058521#11 -185058521#10 -185058521#7 -185058521#6 -185058521#5 -185058521#4 -185058521#3 -185058521#2 -185058521#1 -185058521#0 185058521#0 185058521#1"/>
    </vehicle>
    <vehicle id="16" depart="16.00">
        <route edges="138607806#0 138607806#1 85686031 1329880731 4968726#0 4968726#2 4968726#3 4968726#4 4968726#5 934534998#0 133284396 605381683#0 605381683#1 908439786 185067284#0 684588907#2 684588907#4 185058526#0 185058526#2 185058526#3 185058526#4 1329191638#0 1329191631#1 185058528#0 185058528#1 185058528#2 185058528#3 185058528#4 185058528#5 908439780#0 -1332977696 -823113820#2 -823113820#1 -823113820#0 1031598838#0 1031598838#1 908439771 908439773#0 908439773#1 1031598830 908439764#0 1086479077 23450364#0 23450364#1 23450372#2 23450372#3 23450372#4 94667480"/>
    </vehicle>
    <vehicle id="17" depart="17.00">
        <route edges="10307690#2 10307690#3 10307690#4 10307690#5 1456289472#0 1456289472#1 1456289472#3"/>
    </vehicle>
    <vehicle id="18" depart="18.00">
        <route edges="366936429#3 -185067291#12 -185067291#11 -185067291#10 -185067291#9 -185067291#8 -185067291#7 -185067291#6 -185067291#3 -185067291#2 1329191631#1 185058528#0 185058528#1 185058528#2 185058528#3 185058528#4 185058528#5 908439780#0 100490698#1 1031140718#0 1031140718#2 185058529#2 185058529#4"/>
    </vehicle>
    <vehicle id="19" depart="19.00">
        <route edges="457928264#2 4968735#0 4968735#2 1324742919#0 1324742919#1 1491071955 457926608 353233997 96584852#0 85686097#2 85686097#3 85686097#4 85686097#5 85686097#7 322896714#2 322896714#5 322896714#6 -47051542#3 -47051542#2 -47051542#1 -47051542#0 10504041#0 10504041#1 227481544#1 227481544#2 227481543#0 227481543#1 18465084#0 18465084#1"/>
    </vehicle>
    <vehicle id="20" depart="20.00">
        <route edges="227481543#0 227481543#1 -227481543#1 -227481543#0 -227481544#2 -227481544#1 -227481544#0 -10504041#0 47051542#0 47051542#1 47051542#2 47051542#3 -322896714#6 -322896714#5 -322896714#4 -132526998#20 -132526998#18 -132526998#13 -132526998#8 -132526998#6 -132526998#5 -132526998#4 -132526998#2 -1044592025#1 -116934897#3 -116934897#2 -116934897#0 -1044592026 -1098691308"/>
    </vehicle>
    <vehicle id="21" depart="21.00">
        <route edges="-23450371#1 -23450371#0 23450371#0 23450371#1 23450371#2 23450371#3 23450371#4 23450371#6 23450371#7 -23450364#1 -23450364#0 -1086479077 908439764#1 1086317480 1031598833#0 1031598833#1 823113820#0 823113820#1 823113820#2 1332977696 -908439780#1 -185058528#5 -185058528#4 -185058528#3 -185058528#2 -185058528#1 -185058528#0 -1329191631#2 -1329191638#1 -185058526#4 -185058526#3 -185058526#2 -185058526#0 -684588907#4 -684588907#3 -185067284#1 -908439786 908439774#0 908439774#1 -133284396 1295203332#0 242486004#0 242486004#1 85686058#1 85686058#3 452017076#0 452017076#1 452017076#3 452017076#4 452017076#5 452017076#6 452017076#7 894050249#1 894050249#3 894050249#5 894050249#6 894050249#7 894050252#1 894050252#2 894050252#3 894050245 1424964847#0 1424964847#1 -1259473093#4 -1259473093#3 -1259473093#2 -447864153#9 -447864153#8"/>
    </vehicle>
    <vehicle id="22" depart="22.00">
        <route edges="-1293749502#1 -1293749502#0 -24062423#2 -24062423#1 -24062423#0"/>
    </vehicle>
    <vehicle id="23" depart="23.00">
        <route edges="-137389175#2 -137389175#1 -137389175#0 137389175#0 137389175#1 137389175#2 1333029208 -23450372#4 -23450372#3 -23450372#2 -23450364#1 -23450364#0 -1086479077 908439764#1 1086317480 1031598833#0 1031598833#1 823113820#0 823113820#1 823113820#2 1332977696 100490698#1 1031140718#0 1031140718#2 368171392#1 368171392#2 683311787 683311788#0 122225818#2 122225818#3 -384531636#14 -384531636#12 -384531636#11 -384531636#10 -384531636#9 -384531636#7 -384531636#6 -384531636#5 -384531636#4 -384531636#3"/>
    </vehicle>
    <vehicle id="24" depart="24.00">
        <route edges="186137540#0 186137540#3 1031598837#0 1031598837#1 1031598837#2 908439764#0 908439764#1 1086317480 1031598833#0 1031598833#1 823113820#0 823113820#1 823113820#2 1332977696 100490698#1 1031140718#0 1031140718#2 185058529#2 185058529#4 185058529#5 185058529#6 141121949#0 141121949#1 100023465#1 100023465#2 100023465#3"/>
    </vehicle>
    <vehicle id="26" depart="26.00">
        <route edges="-322896714#5 -322896714#4 132526994#0 132526994#1 132526994#2 1442675772#0 122225824#1 122225824#2 122225824#3 122225824#4 659391997#1 659391997#2 659391997#3 85686035#1 85686035#2"/>
    </vehicle>
    <vehicle id="27" depart="27.00">
        <route edges="19851805#1 19851805#2 287080397#2 287080397#3 132526998#1 132526998#4 132526998#5 132526998#6 132526998#7 132526998#11 132526998#16 132526998#19 322896714#2 322896714#5 322896714#6 -47051542#3 -47051542#2 -47051542#1 -47051542#0 10504041#0 10504041#1 227481544#1 227481544#2 227481543#0 227481543#1 185058537#1 185058537#2 185058521#0 185058521#1 185058521#2 185058521#3 185058521#4 185058521#5 185058521#6"/>
    </vehicle>
    <vehicle id="28" depart="28.00">
        <route edges="-186137540#3 -186137540#2 186137540#0 186137540#3 1031598837#0 1031598837#1 1031598837#2 908439764#0 908439764#1 1086317480 1031598833#0 1031598833#1 823113820#0 823113820#1 823113820#2 1332977696 -908439780#1 -185058528#5 -185058528#4 -185058528#3 -185058528#2 -185058528#1 -185058528#0 -1329191631#2 185067291#1 185067291#3 185067291#6 23450195#0 23450195#1 23450195#3 23450195#4 23450195#5 23450195#6"/>
    </vehicle>
    <vehicle id="29" depart="29.00">
        <route edges="-185067291#11 -185067291#10 -185067291#9 -185067291#8 -185067291#7 -185067291#6 -185067291#3 -185067291#2 1329191631#1 185058528#0 185058528#1 185058528#2 185058528#3 185058528#4 185058528#5 908439780#0 -1332977696 -823113820#2 -823113820#1 -823113820#0 1031598838#0 1031598838#1 908439771 908439773#0 908439773#1 1031598831#0"/>
    </vehicle>
    <vehicle id="30" depart="30.00">
        <route edges="96584852#0 96584850#1 533460425#0 96584856#2 -187379417#8 -187379417#7 -187379417#6 -187379417#5 -187379417#4 -187379417#3 -187379417#1 -187379417#0 187379417#0 187379417#1"/>
    </vehicle>
    <vehicle id="31" depart="31.00">
        <route edges="1490127520#1 894056077#1 894056077#5 894050246#2 894050246#5 894050246#6 894050246#7 894050246#8 894050246#9 -452017076#7 -452017076#6 -452017076#5 -452017076#4 -452017076#3 20135964#12"/>
    </vehicle>
    <vehicle id="32" depart="32.00">
        <route edges="384531636#9 384531636#10 384531636#11 384531636#12 384531636#13 -384531636#14 -384531636#12 -384531636#11 -384531636#10 -384531636#9 -384531636#7 -384531636#6 -384531636#5 -384531636#4 -384531636#3 -384531636#2 132526998#16 132526998#19 132526994#0 132526994#1 132526994#2 1442675772#0 122225824#1 122225824#2 122225824#3 122225824#4 659391997#1 659391997#2 659391997#3 -1332977696 -823113820#2 -823113820#1 242209006#0 242209006#1 242209006#2"/>
    </vehicle>
    <vehicle id="33" depart="33.00">
        <route edges="-23450371#3 -23450371#2 -23450371#1 -23450371#0 23450371#0 23450371#1 23450371#2 23450371#3 23450371#4 23450371#6 23450371#7 -23450364#1 -23450364#0 -1086479077 908439764#1 1086317480 1031598833#0 1031598833#1 823113820#0 823113820#1 823113820#2 1332977696 100490698#1 1031140718#0 1031140718#2 368171392#1 368171392#2 683311787 683311788#0 1442675773#2 240546185#0 1442676221 1324652641#0 1324652641#1 -132526998#20 -132526998#18 -132526998#13 10503056#1 10503056#3 10503056#4 10503056#5 -10503056#5"/>
    </vehicle>
    <vehicle id="34" depart="34.00">
        <route edges="-645659198#2 149726649#9 224798061 -1019858162#1 96584856#2 1083035278#1 1083035278#3 185058533#0 605381683#0 605381683#1 908439786 185067284#0 18465516#1 18465516#2 18465516#4 18465516#5 18465516#6 18465516#7 18465516#8 10504040#0 10504040#1 10504040#2 10504040#3 10504040#4 185067291#10 185067291#11 185067291#12 -366936429#3 -366936429#2 -366936429#1 -366936429#0"/>
    </vehicle>
    <vehicle id="35" depart="35.00">
        <route edges="-229263502#1 -229263502#0 229263502#0 229263502#1 138607806#0 138607806#1 85686031 1329880731 4968726#0 4968726#2 4968726#3 4968726#4 4968726#5 934534998#0 1295203332#0 242486004#0 242486004#1 242486004#5 224798062 424023158 85686097#2 85686097#3"/>
    </vehicle>
    <vehicle id="36" depart="36.00">
        <route edges="475520128#9 475520128#10 315672341#0 315672341#1 315672341#3 149726649#2 149726649#3 149726649#4 149726649#5 149726649#9 224798061 -1019858162#1 96584856#2 1083035278#1 1083035278#3 185058533#0 605381683#0 605381683#1 908439786 185067284#0 684588907#2 684588907#4 185058526#0 185058526#2 185058526#3 185058526#4 1329191638#0 -1329191638#1 -185058526#4 -185058526#3 -185058526#2 -185058526#0 -684588907#4 -684588907#3"/>
    </vehicle>
    <vehicle id="37" depart="37.00">
        <route edges="19851812#15 -476535908#4 -476535908#0 -85686065#4 -85686065#3 -85686065#1 116934894#2 116934894#3 116934894#4 1040357735#1 1170392273 1170392274 1076614208 1040360727#1 1040360727#2"/>
    </vehicle>
    <vehicle id="38" depart="38.00">
        <route edges="684588907#4 185058526#0 185058526#2 185058526#3 185058526#4 1329191638#0 -1329191638#1 -185058526#4 -185058526#3 -185058526#2 -185058526#0 -684588907#4 -684588907#3 -185067284#1 -908439786 908439774#0 908439774#1 -133284396 1295203332#0 242486004#0 242486004#1 85686058#1 85686058#3 452017076#0 452017076#1 20135964#12 20135964#13 4968729#6 4968729#7 1245885190#0 1245885190#1 207978002#0 207978002#1 1053099334 28496479#0 28496479#1 28496479#2 28496479#3 1479917314 114126839#0"/>
    </vehicle>
    <vehicle id="39" depart="39.00">
        <route edges="-306458029#0 -460224344 158009097 237215315#0 237215315#1 -894050250 -1424964847#1 -1424964847#0 -894050245 -894050252#3 -894050252#2 -894050252#1 -894050249#7 -894050249#6 -894050249#5 -894050249#3 -894050249#2 -452017076#7 -452017076#6 -452017076#5 -452017076#4 -452017076#3 -20135964#10 -20135964#9 -20135964#8 -20135964#6 -20135964#3 -20135964#1 -1293749502#1 -1293749502#0 -243897939#3 -243897939#2"/>
    </vehicle>
    <vehicle id="40" depart="40.00">
        <route edges="149726649#3 149726649#4 149726649#5 4968729#6 4968729#7 1245885190#0 1245885190#1 894050246#2 894050246#5 894050246#6 894050246#7 894050246#8 894050246#9 894050249#1 894050249#3 894050249#5 894050249#6 894050249#7 1433974197#0 1433974197#1 10697966#0 10697966#1 10697966#2 24062875#0 24062875#1 24062875#2 845107005#0 24062876#1 24062876#2 24062876#3 24062876#4 -1044592022#1 -1044592022#0 -306458029#1 -306458029#0"/>
    </vehicle>
    <vehicle id="41" depart="41.00">
        <route edges="18465091#7 18465091#8 18465091#9 18465089#0 18465089#1 18465088 -672853627#2 -672853627#1 -322896714#6 -322896714#5 -322896714#4 -132526998#20 -132526998#18 -132526998#13 -132526998#8 -132526998#6 -132526998#5 -132526998#4 -132526998#2 -1044592025#1 -116934897#3 -116934897#2 -116934897#0 -1044592026 -1098691308 -1044592027#1 -1044592027#0 -476535909#2 570082852#0 570082852#2 570082851#0"/>
    </vehicle>
    <vehicle id="42" depart="42.00">
        <route edges="1040360727#2 -10307690#1 -10307690#0 457926608 353233997 96584852#0 96584850#1 533460425#0 96584856#2 1083035278#1 1083035278#3 185058533#0 605381683#0 605381683#1 908439786 185067284#0 684588907#2 684588907#4 185058526#0 185058526#2 185058526#3 185058526#4 1329191638#0 1329191631#1 185058528#0 185058528#1 185058528#2 185058528#3 185058528#4 185058528#5 908439780#0 -1332977696 -823113820#2 -823113820#1 -823113820#0 1031598838#0 1031598838#1 908439771 908439773#0 908439773#1 1031598830 908439764#0 1086479077 23450364#0 23450364#1 -23450371#7 -23450371#6 -23450371#4 -23450371#3 -23450371#2 -23450371#1 -23450371#0"/>
    </vehicle>
    <vehicle id="43" depart="43.00">
        <route edges="997807301#0 997807301#1 25569356#3 -11164444#6 -11164444#4 -11164444#3 -1095040000 -672853627#2 -672853627#1 -322896714#6 -322896714#5 -322896714#4 -132526998#20 -132526998#18 -132526998#13 131117037#1 131117037#3 131117037#4 131117037#5 701955772#0 701955772#1 701955772#2 1311572856"/>
    </vehicle>
    <vehicle id="44" depart="44.00">
        <route edges="-132526998#18 -132526998#13 10503056#1 10503056#3 10503056#4 10503056#5 10503056#6 10503056#7 10503056#8 10503056#9 10503056#11 -1106163359#1"/>
    </vehicle>
    <vehicle id="45" depart="45.00">
        <route edges="-146409552#0 146409552#0 146409552#1 132526998#7 132526998#11 132526998#16 132526998#19 322896714#2 322896714#5 322896714#6 -47051542#3 -47051542#2 -47051542#1 -47051542#0 10504041#0 10504041#1 227481544#1 227481544#2 227481543#0 227481543#1 185058537#1"/>
    </vehicle>
    <vehicle id="46" depart="46.00">
        <route edges="25569436#0 25569436#1 137075981 537845638#0 -18465084#2 -18465084#1 -18465084#0 18465092#0 18465092#1 18465092#3 18465092#4 18465092#6 368171392#1 368171392#2 10504042#2 10504042#4 10504042#6"/>
    </vehicle>
    <vehicle id="47" depart="47.00">
        <route edges="-1136226787#0 -24062423#1 -24062423#0 242486004#1 -245034346#1 -882081190#3 1083035278#1 1083035278#3 185058533#0 605381683#0 605381683#1 908439786 185067284#0 684588907#2 684588907#4 185058526#0 185058526#2 185058526#3 185058526#4 1329191638#0 1329191631#1 185058528#0 185058528#1 185058528#2 185058528#3 185058528#4 185058528#5 908439780#0 -1332977696 -823113820#2 -823113820#1 -823113820#0 1031598838#0 1031598838#1 908439771 908439773#0 908439773#1 1031598830 908439764#0 908439764#1 1086317480 1031598833#0"/>
    </vehicle>
    <vehicle id="48" depart="48.00">
        <route edges="982451667#1 982451667#2 -982451667#2 -982451667#1 -982451667#0 -955391212#2 -955391212#1 -955391212#0 -430560541 -955391213 116934893#0 116934893#1 -430560538#2 132526998#1 132526998#4 132526998#5 132526998#6 132526998#7 132526998#11 132526998#16 132526998#19 322896714#2 322896714#5 322896714#6 25569436#0 25569436#1 137075981"/>
    </vehicle>
    <vehicle id="49" depart="49.00">
        <route edges="908439786 -908439786 908439774#0 908439774#1 -133284396 1295203332#0 242486004#0 242486004#1 85686058#1 85686058#3 452017076#0 452017076#1 452017076#3 452017076#4 452017076#5 452017076#6 452017076#7 -894050246#10 -894050246#8 -894050246#7 -894050246#6 -894050246#5 -894050246#3 -894056077#5 -894056077#1 -894056077#0 -1490127520#0 -894056724#2 894056076#0 894056076#2 35050924#0 35050924#2 236207363#0 236207363#1 314154282#1 458050126#0"/>
    </vehicle>
    <vehicle id="50" depart="50.00">
        <route edges="-1040349449#0 1040349449#0 448943006#2 85686124 116934894#2 116934894#3 116934894#4 448943004#1 353233998#0 353233998#2 96584850#1 533460425#0 96584856#2 1083035278#1 1083035278#3 -185058521#14 -185058521#11 -185058521#10 -18465091#1 -18465091#0 23450160#7 23450160#8"/>
    </vehicle>
    <vehicle id="51" depart="51.00">
        <route edges="19921907#5 19851826#1 19851826#2 19851826#3 44117157 112874505#3 112874505#4 1106163359#1 -10503056#11 -10503056#9 -10503056#8 -10503056#7 -10503056#6 -10503056#5 -10503056#4 -10503056#3 -10503056#2 132526998#11 132526998#16 132526998#19 322896714#2 322896714#5 322896714#6 -47051542#3 -47051542#2 -47051542#1 -47051542#0 10504041#0 10504041#1 227481544#1 227481544#2 227481543#0 227481543#1 185058537#1 185058537#2 185058536#0 185058536#1 185058536#2 185058536#3 185058536#4 185058536#5 185067291#1 185067291#3 185067291#6 185067291#7 185067291#8 185067291#9 185067291#10 185067291#11 185067291#12 185067291#14 185067291#15 185067291#16 229263502#0 229263502#1 138607806#0 138607806#1"/>
    </vehicle>
    <vehicle id="52" depart="52.00">
        <route edges="-322896714#5 -322896714#4 322896714#2 322896714#5 322896714#6 672853627#1 672853627#2 1095040000 11164444#3 11164444#4 11164444#6 187379417#0 187379417#1 187379417#3"/>
    </vehicle>
    <vehicle id="53" depart="53.00">
        <route edges="-1490127520#0 -894056724#2 -894056073 4968735#0 4968735#2 1324742919#0 1324742919#1 1491071955 10307690#0 10307690#1 -1040360727#2 -1040360727#1 -1040360727#0 -1170392274 -1170392273 1040357736#0 -1040357733#8 -1040357733#7 -1040357733#6 -1040357733#5 -1040357733#3 -1040357733#2 -1040357733#1 -1040357733#0 -19851812#6 -19851812#5 -19851812#4 -19851812#3 1109172037#1"/>
    </vehicle>
    <vehicle id="54" depart="54.00">
        <route edges="1125710411#0 1125710411#1 19921907#0 19921907#1 19921907#4 19921907#5 19851826#1 19851826#2 19851826#3 44117157 112874505#3 112874505#4 1106163359#1 -10503056#11 -10503056#9 -10503056#8 -10503056#7 -10503056#6 -10503056#5 -10503056#4 -10503056#3 -10503056#2 132526998#11 132526998#16 132526998#19 201738830#2 1155114055 149725201#0 149725201#1 149725201#2 462566234 85686071#0 96584850#1 533460425#0 1019858162#0 533460431#0 533460431#2 4968729#1 4968729#2 4968729#6 4968729#7 1245885190#0 1245885190#1 894050246#2 894050246#5 894050246#6"/>
    </vehicle>
    <vehicle id="55" depart="55.00">
        <route edges="475520128#9 475520128#10 315672341#0 315672341#1 315672341#3 894050246#2 894050246#5 894050246#6 894050246#7 894050246#8 894050246#9 894050249#1 894050249#3 894050249#5 894050249#6 894050249#7 1433974197#0 1433974197#1 10697966#0 10697966#1 10697966#2 24062875#0 24062875#1 24062875#2 845107005#0 24062876#1 24062876#2 24062876#3 24062876#4 -1044592022#1 -1044592022#0 -306458029#1"/>
    </vehicle>
    <vehicle id="56" depart="56.00">
        <route edges="130601948#0 130601948#1 146409552#0 146409552#1 132526998#7 132526998#11 19851819#1 19851819#2 19851819#4 19851819#5 19851819#9 19851819#10 19851819#11 19851819#12 -19851812#2 -19851812#1"/>
    </vehicle>
    <vehicle id="58" depart="58.00">
        <route edges="-458057795#1 -458057795#0 458057795#0 458057795#1 458057795#2 458057795#3 1458137021#0 314154282#1 458050126#0 207977246#0 207977246#1 1424763807#0 1424763807#1 457928264#0 457928264#2 4968735#0 4968735#2 1324742919#0 1324742919#1 1491071955 457926608 353233997 96584852#0 96584850#1 533460425#0 96584856#2 -187379417#8 -187379417#7 -187379417#6 -187379417#5 -187379417#4 -187379417#3 -187379417#1 -187379417#0 187379417#0"/>
    </vehicle>
    <vehicle id="59" depart="59.00">
        <route edges="185058526#0 185058526#2 185058526#3 185058526#4 1329191638#0 -185058536#6 -185058536#4 -185058536#3"/>
    </vehicle>
    <vehicle id="60" depart="60.00">
        <route edges="24062876#3 24062876#4 -1044592022#1 -1044592022#0 -306458029#1 -306458029#0 -460224344 158009097 237215315#0 237215315#1 -894050250 -1424964847#1 -1424964847#0 -894050245 -894050252#3 -894050252#2 -894050252#1 -894050249#7 -894050249#6 -894050249#5 -894050249#3 -894050249#2 -452017076#7 -452017076#6 -452017076#5 -452017076#4 -452017076#3 -452017076#1 -452017076#0 -85686058#3 -85686058#2 -245034346#1 -882081190#3 -187379417#8 -187379417#7 -187379417#6 -187379417#5 -187379417#4 -187379417#3 -187379417#1 -187379417#0 -11164444#6 -11164444#4 -11164444#3 -1095040000 -672853627#2 -672853627#1 -47051542#3 -47051542#2 -47051542#1 -47051542#0 10504041#0 10504041#1 227481544#1 227481544#2 227481543#0 227481543#1 18465092#0 18465092#1 18465092#3 18465092#4 18465092#6 185058529#2 185058529#4 185058529#5 185058529#6 141121949#0"/>
    </vehicle>
    <vehicle id="61" depart="61.00">
        <route edges="243126183#2 243126183#3 243126183#4 185058536#0 185058536#1 185058536#2 185058536#3 185058536#4 185058536#5 1329191631#1 185058528#0 185058528#1 185058528#2 185058528#3 185058528#4 185058528#5 908439780#0 -1332977696 -823113820#2 -823113820#1 -823113820#0 1031598838#0 1031598838#1 908439771 908439773#0 908439773#1 1031598830 908439764#0 1086479077 23450364#0 23450364#1 23450372#2 23450372#3 23450372#4 1333029209 -137389175#2 -137389175#1 -137389175#0 137389175#0 137389175#1 137389175#2"/>
    </vehicle>
    <vehicle id="62" depart="62.00">
        <route edges="-100023465#1 141121949#2 141121949#3 229862446#0 229862446#1 122225824#3 94611933 368171392#2 10504042#2 10504042#4 10504042#6 47051542#0 47051542#1 47051542#2 47051542#3 672853627#1 672853627#2 1095040000 11164444#3 11164444#4 11164444#6 187379417#0 187379417#1 187379417#3 187379417#4 187379417#5 187379417#6 187379417#7 187379417#8 882081190#3 245034346#0 85686058#1 85686058#3 452017076#0 452017076#1 452017076#3 452017076#4 452017076#5 452017076#6 452017076#7 174946502#1 174946502#3 174946502#4 174946502#5 845107004#0 845107004#1 -845107004#1"/>
    </vehicle>
    <vehicle id="63" depart="63.00">
        <route edges="-1040360727#2 -1040360727#1 -1040360727#0 -1170392274 -1170392273 1040357736#0 448943004#1 353233998#0 353233998#2 96584850#1 533460425#0 1019858162#0 533460431#0 533460431#2 4968729#1 4968729#2 4968729#6 4968729#7 1245885190#0 1245885190#1 894050246#2 894050246#5 894050246#6 894050246#7 894050246#8 894050246#9 894050249#1 894050249#3 894050249#5 894050249#6 894050249#7 1433974197#0 1433974197#1 10697966#0 10697966#1 10697966#2 24062875#0 24062875#1 24062875#2 845107005#0"/>
    </vehicle>
    <vehicle id="64" depart="64.00">
        <route edges="476535909#1 1044592027#0 1044592027#1 1098691308 1044592026 116934897#0 116934897#2 116934897#3 1044592025#0 132526998#1 132526998#4 132526998#5 132526998#6 132526998#7 132526998#11 132526998#16 132526998#19 132526994#0 132526994#1 132526994#2 1442675772#0 122225824#1 122225824#2 122225824#3 94611933 368171392#2"/>
    </vehicle>
    <vehicle id="65" depart="65.00">
        <route edges="-537845637#0 537845637#0 537845637#1 537845637#2 537845637#3 537845637#4 537845637#5 18465091#7 18465091#8 18465091#9 18465089#0 18465089#1 18465086 11164444#3 11164444#4 11164444#6 187379417#0 187379417#1 187379417#3 187379417#4 187379417#5 187379417#6 187379417#7 187379417#8 882081190#3 245034346#0 85686058#1 85686058#3 452017076#0 452017076#1 452017076#3 452017076#4 452017076#5 452017076#6 452017076#7 174946502#1 174946502#3 174946502#4 174946502#5 164833027#1 164833027#2 164833027#3 1044592020#0 1044592020#1 -1126009754"/>
    </vehicle>
    <vehicle id="66" depart="66.00">
        <route edges="476535908#3 476535909#1 1044592027#0 1044592027#1 1098691308 144130421#2 857631625#0 857631625#1"/>
    </vehicle>