<routes>
  <vType id="bg_car" vClass="passenger" accel="2.6" decel="4.5" tau="0.7" minGap="0.5" sigma="0.8"/>
  <vehicle id="veh_2514" type="bg_car" depart="0" departPos="random_free" departLane="best">
    <route edges="46157587#0 46157587#1 46834184 46834194#0 46834194#1 46834194#2 23695578#0 23695578#1 23695578#2 23695578#3 109187803#1 468101135#0 468101135#1 392384226 391619231#1 22931824#4 362166392#1 362166392#3 360817476#0 410578191#0 410578191#1 410578190#0 981525353#1 981525353#2 981525353#3 981525353#4 981525353#5 -731858362#4 -731858362#3 -731858362#2 -731858362#1 23695676#1 97678475#3"/>
  </vehicle>
  <vehicle id="veh_87" type="bg_car" depart="1" departPos="random_free" departLane="best">
    <route edges="46157683#2 97571124#0 97571124#1 391617561#2 391617559#1 865308211#1 391115743#1 391115743#2 50030131 391261427#0 391261427#1 330142318#0 330142318#1 330142320#1 392193478#1 26973916#1 26973916#2 26973916#3 97375641#5 97375641#1"/>
  </vehicle>
  <vehicle id="veh_1585" type="bg_car" depart="2" departPos="random_free" departLane="best">
    <route edges="31730833#1 31730833#2 31730833#3 31730833#4 31730833#5 31730832#0 31730880#2 31730880#4 410678958#0 410678958#1 410678958#2 410678958#3 341113743 691272005#0 691272005#1 341113749#0 341113749#1 410578189#0 981525356 410561689#0 410561690#0 31730979#1 31730979#2 31730979#3 360817479#1 362166390#0 405704264#1 405704269#1 743557034 743557033 405704266#1 23148382#0 398772649#0 398772649#2 -398772650#2 -398772650#1 -398772650#0 362166393#0 398747429#0 398747429#1 398772648#1 398772648#2 683380104#0 391475609#1 391475604#0 391475604#1 1010073307 97313114#0 1010073305 391475606#0"/>
  </vehicle>
  <vehicle id="veh_933" type="bg_car" depart="3" departPos="random_free" departLane="best">
    <route edges="182554514#5 408816685 644021301 644021294 644021298#0 644021298#1 410561690#0 31730979#1 31730979#2 31730979#3 360817479#1 362166390#0 683626493#1 238163759#0 238163759#1 238163759#2 238163759#3 238163759#4 238163759#5 391475615 743557031 391475610#0 602723747#1 46607940#0 46607940#2 46607940#4 46607940#5 391475605 19725094#1"/>
  </vehicle>
  <vehicle id="veh_1763" type="bg_car" depart="5" departPos="random_free" departLane="best">
    <route edges="62267505 97375646 97375655#0 97375655#1 987349694#0 97681174 682179943#0 682179943#1 682179943#2 391584011#1 97681176#0"/>
  </vehicle>
  <vehicle id="veh_883" type="bg_car" depart="7" departPos="random_free" departLane="best">
    <route edges="-391261432 391261432 139191196 97694722#0 97694722#2 97694722#3 763036848 360817765#0 360817765#1 468101300#1 468101300#2 468101300#3 23695614 678808870#0 97571113#0 97571113#1 586139486 586139487 583803106 336162419 -336162416#7 -336162416#6 -336162416#5 -336162416#4 -336162416#3 -336162416#2 -336162416#1 -336162416#0 46157615#4 46344773#0 46344773#1 312611532"/>
  </vehicle>
  <vehicle id="veh_37" type="bg_car" depart="8" departPos="random_free" departLane="best">
    <route edges="468101136#1 109187803#0 109187803#1 468101135#0 468101135#1 392384226 391619231#1 22931824#4 362166392#1 362166392#3 360817476#0 360816809#1 691272004 -182554514#5 -182554514#4 -182554514#3 -182554514#2 -182554514#1 -182554514#0 31623352#1 31623352#2 31623352#3 31623352#4 31623352#5 31623352#6 691272002#0 691272002#1 31623346#0 31623346#2 31623347#0 31623347#1 -31730486#3 31730489#0 31730489#1 31730489#2 31730490#0"/>
  </vehicle>
  <vehicle id="veh_2542" type="bg_car" depart="9" departPos="random_free" departLane="best">
    <route edges="691272001#1 26594894#1 26594894#2 26594894#4 26594894#6 26594894#7 26594894#9 26594894#10 26594894#11 31650171#0 31650171#1 683634478#0 683634478#1 683634478#2 683634478#3 182554514#0 182554514#1 182554514#2 182554514#3 182554514#4 182554514#5 408816685 644021301 644021294 644021298#0 644021298#1 410561690#0 31730979#1 31730979#2 31730979#3 360817479#1 362166390#0 405704264#1 405704269#1 743557034 743557033 405704266#1 23148382#0 398772649#0 398772649#2 -398772650#2 -398772650#1 -398772650#0 362166393#0 398747429#0 398747429#1 398772648#1 398772648#2 683380104#0 442360573#1 830861766#1 1016415567#1"/>
  </vehicle>
  <vehicle id="veh_2568" type="bg_car" depart="9" departPos="random_free" departLane="best">
    <route edges="31623365#0 31623365#1 31623365#2 31623365#3 31623365#4 392386766#0 1017821972#3 1017821972#4 97678475#0 97678475#1 97678475#2 97678475#3 97678475#4 97678475#5 691272006#0 691272006#1 341113754 341113747 408823810#0"/>
  </vehicle>
  <vehicle id="veh_534" type="bg_car" depart="10" departPos="random_free" departLane="best">
    <route edges="-23695748 138371905#2 138371905#3 -138371904 243153286#0 243153286#1 243153286#2 23695714#4 23695714#5 23695714#6 410678957#2 410678957#3 31730880#2 31730880#4 410678958#0 410678958#1 410678958#2 410678958#3 341113743 691272005#0 691272005#1 341113749#0 341113749#1 410578189#0 981525356 410561689#0 410561690#0 31730979#1 31730979#2 31730979#3 360817479#1 362166390#0 405704264#1 46834189#1 -22931613 46834195 46834188 -23695578#1 -23695578#0 -1357743128#6 -1357743128#5 -1357743128#4 46157615#0 46157615#1 46157615#2 46157615#3 336162416#0 336162416#1 336162416#2 336162416#3 336162416#4 336162416#5"/>
  </vehicle>
  <vehicle id="veh_2804" type="bg_car" depart="10" departPos="random_free" departLane="best">
    <route edges="1386934158#1 392384235 109138428#0 109138428#1 97473706#0 97473706#1 96997235 5449341#0 5449341#1 405704267#3 405704269#1 743557034 743557033 405704266#1 23695646#0 23695646#1 23695646#2 23695646#3 23695646#4 481902581#0 481902581#1 481902581#2 683367280#0 683367280#1 397401631#0 397401631#1 397401631#2 895167254#0 384774179#1 384774179#2 384774179#3 1333220790 1272531937#0 1272531937#1 23738909#0 23738909#1 23738909#2 23738909#3 1333220781#0 1333220780#0 138258184#4 138258184#6 330146376#0 330146376#2 25497761#2"/>
  </vehicle>
  <vehicle id="veh_2533" type="bg_car" depart="11" departPos="random_free" departLane="best">
    <route edges="648297878#3 139191196 -849054631#0 -23695597#1 -23695597#0 -391261430#1 391115691 439967842#0 439967842#1 391115693#0 391115693#1 391115693#2 1416818383#0 -169824672#3"/>
  </vehicle>
  <vehicle id="veh_2550" type="bg_car" depart="12" departPos="random_free" departLane="best">
    <route edges="-939110473#0 939110473#0 410578193#1 360816804 410578192#0 410578192#1 341113747 341113753 31623365#0 31623365#1 31623365#2 31623365#3 31623365#4 392386766#0 1017821972#3 1017821972#4"/>
  </vehicle>
  <vehicle id="veh_879" type="bg_car" depart="13" departPos="random_free" departLane="best">
    <route edges="391261423 238054156 19725392 391261424#0 391261424#1 -391115691 391261430#0 23695597#0 23695597#1 23695597#2 97694722#0 97694722#2 97694722#3 763036848 360817765#0 360817765#1 468101139 468101138 468101137 468101136#1 109187803#0 109187803#1 468101135#0 468101135#1 392384226 468101134#1 392384229#0 683626493#1 238163759#0 238163759#1 238163759#2 238163759#3 238163759#4 238163759#5 391475615 743557031 391475610#0 602723747#1 46607940#0 46607940#2 46607940#4 46607940#5"/>
  </vehicle>
  <vehicle id="veh_2616" type="bg_car" depart="14" departPos="random_free" departLane="best">
    <route edges="1161058418#0 1161058420#0 391593978#0 391593637#0 1084409143#1"/>
  </vehicle>
  <vehicle id="veh_1976" type="bg_car" depart="15" departPos="random_free" departLane="best">
    <route edges="-31730838#2 31730838#2 530597383#1 341113756#1 977477291#0 977477291#1 977477291#2 31623369#0 31623369#1 31623369#2 31623369#3 31623369#4 392386764#0 392386764#1 341113753 341113743 691272005#0 691272005#1 341113749#0 341113749#1 410578189#0 981525356 410561689#0 410561690#0 31730979#1 31730979#2 31730979#3 360817479#1 362166390#0 405704264#1 405704269#1 743557034 743557033 405704266#1 23148382#0 398772649#0 398772649#2 -398772650#2 -398772650#1 -398772650#0 362166393#0 398747429#0 398747429#1 398772648#1 398772648#2 683380104#0 391475613#1 934043172#0 934043172#1 391446248 98669711#0 23659160#0 683632610 137168488#0 137168488#1 23659149#0 23659149#1"/>
  </vehicle>
  <vehicle id="veh_2993" type="bg_car" depart="16" departPos="random_free" departLane="best">
    <route edges="46834181#2 46834181#3 46834181#4 46834172#0 46834172#1 46157591#1 46157591#2 1357743128#5 1357743128#6 23695578#0 23695578#1 23695578#2 23695578#3 109187803#1 468101135#0 468101135#1 392384226 391619231#1 22931824#4 362166392#1 362166392#3 360817476#0 410578191#0 410578191#1 410578190#0 -939110473#0 31729662#0 31729662#1 31729664#0 31729664#1 31729664#2 -31623345#2"/>
  </vehicle>
  <vehicle id="veh_1222" type="bg_car" depart="17" departPos="random_free" departLane="best">
    <route edges="46157615#2 46157615#3 46157615#4 1285553871#0 1285553871#1 1285553871#2 -46344780#1 -46344780#0 -46344781#1 -46344781#0 -46157616#1 46157585#0 46157596#2 492604139"/>
  </vehicle>
  <vehicle id="veh_1267" type="bg_car" depart="17" departPos="random_free" departLane="best">
    <route edges="391115732#0 391115732#1 391115732#2 391115705 19725397#0 19725397#2 19725397#3 866058847 97571125#0 97571125#1 97571125#2 391115731 391115724 362166819#1 391115722 682179937#1 391115725 682178001#1 391115714 19725406#0 19725406#2 23613098#0 23613098#1 23613098#2 1017821972#3 1017821972#4 97678475#0 97678475#1 97678475#2 97678475#3 97678475#4 97678475#5 691272006#0 691272006#1 341113754 341113747 408823810#0 408823810#1 408823810#2 408823810#3 408823810#5 408823810#6 408823810#7 31730880#2 31730880#4 410678958#0 410678958#1 97678472#0"/>
  </vehicle>
  <vehicle id="veh_3219" type="bg_car" depart="18" departPos="random_free" departLane="best">
    <route edges="97678460#0 97678460#1 341113749#0 341113749#1 410578189#0 981525356 410561689#0 410561690#0 31730979#1 31730979#2 31730979#3 360817479#1 362166390#0 405704264#1 46834189#1 -22931613 46834195 46834188 -23695578#1 -23695578#0 -1357743128#6 -1357743128#5 -1357743128#4 -1357743128#3 -1357743128#2 -1357743128#0 -1357743127#1 -1357743127#0 678808870#0 97571113#0 97571113#1 586139486 46157683#0 46157683#1 46157683#2 46157683#3 1014010076#1 1014010076#2 384774179#1 384774179#2 384774179#3 1333220790 1272531937#0 1272531937#1 391115698#7 391115698#8 391115698#9 1113383552#0 1113383552#1 383435481#0 383435481#1"/>
  </vehicle>
  <vehicle id="veh_3262" type="bg_car" depart="20" departPos="random_free" departLane="best">
    <route edges="46834184 46834194#0 46834194#1 46834194#2 23695578#0 23695578#1 23695578#2 23695578#3 109187803#1 468101135#0 468101135#1 392384226 391619231#1 22931824#4 362166392#1 362166392#3 360817476#0 360816809#1 691272004 -182554514#5 -182554514#4 -182554514#3 -182554514#2 -182554514#1 -182554514#0 31623352#1 31623352#2 31623352#3 31623352#4 31623352#5 -31623352#5 -31623352#4 -31623352#3 -31623352#2"/>
  </vehicle>
  <vehicle id="veh_2787" type="bg_car" depart="22" departPos="random_free" departLane="best">
    <route edges="138255984 666544871#0 666544871#1 448822920#0 448822920#1 442360577#0 442360576 398747428 362166396#2 362166396#3 362166396#4 1462979768 481902581#0 481902581#1 481902581#2 683367280#0 585472237 1015880750#0 1015880750#1 46834181#0 46834181#1 46834181#2 336162416#4 336162416#5 336162416#6 336162416#7 531255045#0 531255045#1 531347572 391617561#1 391617561#2 1357756561#1 1357756561#2 391115695 942844986 391261416#0 391261416#1 391261417#0 391261417#1 391261417#2 392160368#0 97370954#0 97370954#2 97370954#4 956362443#0"/>
  </vehicle>
  <vehicle id="veh_78" type="bg_car" depart="24" departPos="random_free" departLane="best">
    <route edges="576927772 576927767#0 576927771#0 576927771#1 682179943#2 1416818383#0 1416818383#1 682179944 97681177#1 97681177#2 1416818377#0 1416818377#1 1416818377#2 391590529#2 391590529#3"/>
  </vehicle>
  <vehicle id="veh_2803" type="bg_car" depart="24" departPos="random_free" departLane="best">
    <route edges="383435482#2 -23659260#3 -397401652#3 -397401652#2 -397401652#1 583803106 336162419 531255045#0 531255045#1 531347572 531347575#1 1357743127#0 1357743127#1 1357743128#0 1357743128#2 1357743128#3 1357743128#4 1357743128#5 1357743128#6 23695578#0 23695578#1 23695578#2 23695578#3 109187803#1 468101135#0 468101135#1 392384226 391619231#1 22931824#4 362166392#1 362166392#3 360817476#0 360816809#1 691272004 -182554514#5 -182554514#4 -182554514#3 -182554514#2 -182554514#1 -182554514#0 31623352#1 31623352#2 31623352#3 31623352#4 31623352#5 31623352#6 691272002#0 691272002#1 31623346#0 31623346#2 31623346#3 691272001#0 691272001#1 26594894#1 26594894#2 26594894#4 26594894#6 26594894#7"/>
  </vehicle>
  <vehicle id="veh_3093" type="bg_car" depart="24" departPos="random_free" departLane="best">
    <route edges="391261416#0 391261416#1 391115709 391115694#0 391115694#1 942844987 391115706 391115732#0 391115732#1 391115732#2 391115705 19725397#0 19725397#2 19725397#3 468101113#0 468101113#1 109187800#0 391261431#0 391261431#1 391261431#2 468101139 468101138 468101137 468101136#1 109187803#0 109187803#1 468101135#0 468101135#1 392384226 391619231#1 22931824#4 362166392#1 362166392#3 360817476#0 410578191#0 410578191#1 410578190#0 -939110473#0 -31623344#6 -31623344#5 -31623344#4 -31623344#3 -31623344#2 -31623344#1 -31623344#0 31623370#4 31623370#5 392386765#1 97678478#0 97678478#1"/>
  </vehicle>
  <vehicle id="veh_331" type="bg_car" depart="27" departPos="random_free" departLane="best">
    <route edges="22931824#1 97694674#2 97694674#3 -97694722#3 -97694722#2 -97694722#0 -849054631#0 -23695597#1 -23695597#0 -391261430#1 391115691 439967842#0 439967842#1 391115693#0 391115693#1 391115693#2 1416818383#0 1416818383#1 682179944 910500578#1 1415945423#0 987349693#2 987349693#3 141690742#2"/>
  </vehicle>
  <vehicle id="veh_1371" type="bg_car" depart="27" departPos="random_free" departLane="best">
    <route edges="341113758#0 341113758#1 341113758#2 341113760 172208585#2 -31730862#1 -31730862#0 31730838#2 530597383#1 341113756#1 977477291#0 977477291#1 977477291#2 31623369#0 31623369#1 31623369#2 31623369#3 31623369#4 392386764#0 392386764#1 341113753 31623365#0 31623365#1 31623365#2 31623365#3 31623365#4 392386766#0 392386761 939107930 97678453#0 529689866#0 530284616#0 19851338#0 19851338#1 19851338#2 391115733#0 391115733#1 238054156 19725392 391261424#0 391261424#1 391115721#0 391115721#1 391115700#0 391115700#1 391115717#0 391115717#1 391261427#0 391261427#1 391261422 391115736#0 391115736#1 391115736#2 743557040#0 743557040#1 743557039 391115709 391115698#0 391115698#1 391115698#2 391115698#3"/>
  </vehicle>
  <vehicle id="veh_1455" type="bg_car" depart="27" departPos="random_free" departLane="best">
    <route edges="442508391#2 442508391#3 934007250#0 362166396#2 362166396#3 362166396#4 1462979768 481902581#0 481902581#1 481902581#2 683367280#0 585472237 1015880750#0 1015880750#1 46834181#0 46834181#1 46834181#2 336162416#4 336162416#5 336162416#6 336162416#7 531255045#0 531255045#1 531347572 391617561#1 391617561#2 391617559#1 865308211#1 391115743#1 391115743#2 97571125#0 97571125#1 97571125#2 391115731 391115724 391115691 439967842#0 439967842#1 391115693#0 391115693#1 391115693#2 1416818383#0 1416818383#1 682179944 910500578#1 1415945423#0 97375638#2"/>
  </vehicle>
  <vehicle id="veh_1920" type="bg_car" depart="30" departPos="random_free" departLane="best">
    <route edges="391115726#0 391115726#1 -439967842#1 -439967842#0 391115721#0 391115721#1 391115700#0 391115700#1 391115717#0 391115717#1 391261427#0 391261427#1 391261422 391115736#0 391115736#1 391115736#2 391586129#2 391590523#0 392160368#0 392160372#1"/>
  </vehicle>
  <vehicle id="veh_2554" type="bg_car" depart="34" departPos="random_free" departLane="best">
    <route edges="-693403402#1 -693403402#0 693403401 137829006#0 137829006#2 686083097#0 111424519#1 410647478 410647475 410647477 693403402#0 693403402#1 111424521#0 360817476#0 410578191#0 410578191#1 410578190#0 410578193#1 360816804 410578192#0 410578192#1 341113747 341113753 31623365#0 31623365#1 31623365#2 31623365#3 31623365#4 392386766#0 392386761 939107930 97678453#0 341271041#0 341271041#1 341271041#3 391513272 391513276#0 939107933#1 23695714#0 23695714#1 23695768#0 23695768#1 138371903#0 138371903#1 -138371906#2 -138371906#1 -138371906#0"/>
  </vehicle>
  <vehicle id="veh_589" type="bg_car" depart="35" departPos="random_free" departLane="best">
    <route edges="252967465 252967467#1 252967467#2 252967467#4 119866361#0 119866361#1 119866361#2 1415945422#0 1415945422#1 987349694#0 97681174 682179943#0 682179943#1 682179943#2 391115689#0 391115689#2 -439967842#1 -439967842#0 391115721#0 391115721#1 391115700#0 391115700#1 391115717#0 391115717#1 391261427#0 391261427#1 391261422 391115736#0 391115736#1 391115736#2 743557040#0 743557040#1 743557039 391115709 391115698#0 391115698#1 391115698#2 391115698#3 391115698#4 391115698#5 391115698#6 391115698#7 391115698#8 391115698#9 1113383552#0 1113383552#1 383435481#0 383435481#1"/>
  </vehicle>
  <vehicle id="veh_2632" type="bg_car" depart="35" departPos="random_free" departLane="best">
    <route edges="31730490#2 -31730489#1 -31730489#0 -31730486#1 -31730486#0 683634478#2 683634478#3 182554514#0 182554514#1 182554514#2 182554514#3 182554514#4 182554514#5 408816685 644021301 644021294 644021298#0 644021298#1 410561690#0 46278191#1 46278191#2 46278191#3 23695580 109122043#3 109122043#4 109122043#5 97694722#2 97694722#3 763036848 360817765#0 360817765#1 97694715#0 97694784 23613257#0 23613257#0-AddedOffRampEdge"/>
  </vehicle>
  <vehicle id="veh_3073" type="bg_car" depart="35" departPos="random_free" departLane="best">
    <route edges="391617562#1 391617561#2 391617559#1 865308211#1 391115743#1 391115743#2 50030131 391261427#0 391261427#1 330142318#0 330142318#1 330142320#1 392193478#1 26973916#1 26973916#2 26973916#3 97375641#5 97375641#1 391584013 24692321#0 24692321#1"/>
  </vehicle>
  <vehicle id="veh_3199" type="bg_car" depart="36" departPos="random_free" departLane="best">
    <route edges="172215109 31730833#1 31730833#2 31730833#3 31730833#4 31730833#5 31730832#0 31730880#2 31730880#4 410678958#0 410678958#1 410678958#2 410678958#3 341113743 691272005#0 691272005#1 341113749#0 341113749#1 410578189#0 981525356 410561689#0 410561690#0 46278191#1 46278191#2 46278191#3 23695580 109122043#3 109122043#4 109122043#5 97694722#2 97694722#3 763036848 360817765#0 360817765#1 97694715#0 391617555#1 865308206#1 1357756561#1 1357756561#2 391115695 942844986"/>
  </vehicle>
  <vehicle id="veh_2292" type="bg_car" depart="38" departPos="random_free" departLane="best">
    <route edges="-31730838#1 -31730838#0 31730833#0 31730833#1 31730833#2 31730833#3 31730833#4 31730833#5 31730832#0 31730880#2 31730880#4 410678958#0 410678958#1 410678958#2 410678958#3 341113743 691272005#0 691272005#1 341113749#0 341113749#1 410578189#0 981525356 410561689#0 410561690#0 31730979#1 31730979#2 31730979#3 360817479#1 362166390#0 405704264#1 405704269#1 743557034 743557033 405704266#1 23695646#0 23695646#1 23695646#2 23695646#3 23695646#4 481902581#0 481902581#1 481902581#2"/>
  </vehicle>
  <vehicle id="veh_464" type="bg_car" depart="39" departPos="random_free" departLane="best">
    <route edges="97678475#1 97678475#2 97678475#3 97678475#4 97678475#5 691272006#0 691272006#1 341113754 31623370#0 31623370#1 31623370#2 31623370#3 31623370#4 31623370#5 392386765#1 97678478#0 97678478#1 392386763#0 392386763#1 530597384#1"/>
  </vehicle>
  <vehicle id="veh_2893" type="bg_car" depart="39" departPos="random_free" departLane="best">
    <route edges="46278191#2 46278191#3 23695580 109122041 22931824#3 22931824#4 362166392#1 362166392#3 360817476#0 360816809#1 691272004 -182554514#5 -182554514#4 -182554514#3 -182554514#2 -182554514#1 -182554514#0 31623352#1 31623352#2 31623352#3 31623352#4"/>
  </vehicle>
  <vehicle id="veh_3145" type="bg_car" depart="39" departPos="random_free" departLane="best">
    <route edges="172215134#0 172215134#1 530597382#0 530597382#1 172208598 172208590 180890014#0 26594894#1 26594894#2 26594894#4 26594894#6 26594894#7 26594894#9 26594894#10 26594894#11 31650171#0 31650171#1 683634478#0 683634478#1 683634478#2 683634478#3 182554514#0 182554514#1 182554514#2 182554514#3 182554514#4 182554514#5 408816685 644021301 644021294 644021298#0 644021298#1 410561690#0 46278191#1 46278191#2 46278191#3 23695580 109122043#3 109122043#4 109122043#5 97694722#2 97694722#3 763036848 360817765#0 360817765#1 97694715#0 391261431#0"/>
  </vehicle>
  <vehicle id="veh_1537" type="bg_car" depart="40" departPos="random_free" departLane="best">
    <route edges="-486192528#1 -486192528#0 97375641#4 97375641#5 97375641#1 391584013 24692321#0 24692321#1 97694774#0 97694774#1 391115689#0 391115689#2 -439967842#1 -439967842#0 -391115691 391261430#0 23695597#0 23695597#1 23695597#2 97694722#0 109122037#0 109122037#2 109122037#3 109122037#4 109122043#0"/>
  </vehicle>
  <vehicle id="veh_1304" type="bg_car" depart="41" departPos="random_free" departLane="best">
    <route edges="97681176#0 1014031163#0 391585276#1 391585276#2 391115741#0 391115741#1 468101116 468101113#0 468101113#1 109187800#0 391261431#0 391261431#1 391261431#2 468101300#1 468101300#2 468101300#3 23695614 678808870#0 97571113#0 97571113#1 586139486 586139487 583803106 336162419 -336162416#7 -336162416#6 -336162416#5 46834175#2 46834175#3 46834175#4 46834470 46834471#1 -46834471#1"/>
  </vehicle>
  <vehicle id="veh_3483" type="bg_car" depart="41" departPos="random_free" departLane="best">
    <route edges="360817765#1 468101300#1 468101300#2 468101300#3 23695614 1357743127#0 1357743127#1 1357743128#0 1357743128#2 1357743128#3 1357743128#4 1357743128#5 1357743128#6 1357743128#8 586598803 336162420#0 336162420#1 46834195"/>
  </vehicle>
  <vehicle id="veh_1568" type="bg_car" depart="42" departPos="random_free" departLane="best">
    <route edges="391115698#3 391115698#4 391115698#5 391115698#6 391115698#7 391115698#8 391115698#9 1113383552#0 1113383552#1 391261418 391261419 391617563#0 391617563#1 1014010082#5 1014010079#1 1014010079#2 1014010079#3 1014010079#4 391617556#1 391617562#1 391617562#2 531347575#1 1357743127#0 1357743127#1 1357743128#0 1357743128#2 1357743128#3 1357743128#4 1357743128#5 1357743128#6 23695578#0 23695578#1 23695578#2 23695578#3 109187803#1 468101135#0 468101135#1 392384226 391619231#1 22931824#4 109122021#1 5410856#7 5410856#8 -693403402#1 -693403402#0 693403401 137829006#0 137829006#2 686083097#0 -231907573#1 -231907573#0"/>
  </vehicle>
  <vehicle id="veh_1682" type="bg_car" depart="43" departPos="random_free" departLane="best">
    <route edges="-31623352#5 -31623352#4 -31623352#3 -31623352#2 -31623352#1 182554514#0 182554514#1 182554514#2 182554514#3 182554514#4 182554514#5 408816685 644021301 644021294 644021298#0 644021298#1 410561690#0 31730979#1 31730979#2 31730979#3 360817479#1 362166390#0 405704264#1 46834189#1 -22931613 46834195 46834188 -23695578#1 -23695578#0 -1357743128#6 -1357743128#5 -1357743128#4 -1357743128#3 -1357743128#2 -1357743128#0 -1357743127#1 -1357743127#0 678808870#0 97571113#0 97571113#1 586139486 586139487 397401652#1 397401652#2 397401652#3 -397401652#3 -397401652#2 -397401652#1"/>
  </vehicle>
  <vehicle id="veh_1182" type="bg_car" depart="44" departPos="random_free" departLane="best">
    <route edges="45081069#3 442360577#0 442360576 398747428 362166396#2 362166396#3 362166396#4 1462979768 481902581#0 481902581#1 481902581#2 683367280#0 585472237 1015880750#0 1015880750#1 46834181#0 46834181#1 46834181#2 336162416#4 336162416#5 336162416#6 336162416#7 531255045#0 531255045#1 531347572 391617561#1 391617561#2 391617559#1 865308211#1 391115743#1 391115743#2 97571125#0 97571125#1 97571125#2 391115731 391115724 391115691 439967842#0 439967842#1 391115693#0 391115693#1 391115693#2 1416818383#0 1416818383#1 682179944 910500578#1 1415945423#0 97375638#2 97375638#3 97375638#4 97375638#5 1416818381 974886443#0 974886443#1 1338466955 -1416818376#1 -1416818376#0 398455687"/>
  </vehicle>
  <vehicle id="veh_1842" type="bg_car" depart="44" departPos="random_free" departLane="best">
    <route edges="172208588 -172208588 172208585#2 -31730862#1 -31730862#0 31730838#2 530597383#1 341113756#1 977477291#0 977477291#1 977477291#2 31623369#0 31623369#1 31623369#2 31623369#3 31623369#4 392386764#0 392386764#1 341113753 341113743 691272005#0 691272005#1 341113749#0 341113749#1 410578189#0 981525356 410561689#0 410561690#0 31730979#1 31730979#2 31730979#3 360817479#1 362166390#0 405704264#1 46834189#1 -22931613 46834195 46834188 -23695578#1 -23695578#0 -1357743128#6 -1357743128#5 -1357743128#4 -1357743128#3 -1357743128#2 -1357743128#0 -1357743127#1 -1357743127#0 678808870#0 97571113#0 97571113#1 586139486 46157683#0 46157683#1 46157683#2 46157683#3 1014010076#1 1014010076#2 384774179#1 384774179#2 384774179#3 1333220790 1272531937#0 1272531937#1 23738909#0 23738909#1 23738909#2 23738909#3 1333220781#0 1333220780#0 397401636#1 397401636#3 397401636#4 1358427942 392191090#0 -138225906#3 -138225906#0 399135146#0 399135146#1 399135146#2"/>
  </vehicle>
  <vehicle id="veh_2631" type="bg_car" depart="45" departPos="random_free" departLane="best">
    <route edges="391115736#0 391115736#1 391115736#2 743557040#0 743557040#1 743557039 391115709 391115694#0 391115694#1 942844987 391115706 391115732#0 391115732#1 391115732#2 391115705 19725397#0 19725397#2 19725397#3 866058847 97571125#0 97571125#1 97571125#2 391115731 391115724 362166819#1 391115722 682179937#1 391115725 682178001#1 391115714 19725406#0 19725406#2 530284613#0 341271041#0 341271041#1 341271041#3 391513272 391513276#0 939107933#1 345796619 345796618#1"/>
  </vehicle>
  <vehicle id="veh_457" type="bg_car" depart="46" departPos="random_free" departLane="best">
    <route edges="392160368#0 392160372#1 138258184#0 138258184#4 24747037#6 24747037#8 1161058419#0 391261420#0 391261420#1 1113383552#0 1113383552#1 391261418 391261419 1113383551#0 1113383551#1 1113383551#2 384774179#3"/>
  </vehicle>
  <vehicle id="veh_1997" type="bg_car" depart="46" departPos="random_free" departLane="best">
    <route edges="830861766#1 1016415567#1 45030195#0 45030195#1 23659149#2 23659149#3 137168488#0 137168488#1 137225958#0 137225958#1 934043171#0 391475609#1 391475604#0 391475604#1 1010073307 97313114#0 442508391#0 442508391#1 442508391#2 442508391#3 934007250#0 362166396#2 362166396#3 362166396#4 1462979768 481902581#0 481902581#1 481902581#2 683367280#0 683367280#1 397401631#0 397401631#1 397401631#2 895167254#0 384774179#1 384774179#2 384774179#3 1333220790 1272531937#0 1272531937#1 391115698#7 391115698#8 391115698#9 1113383552#0 1113383552#1 391261418 391261419 391617563#0"/>
  </vehicle>
  <vehicle id="veh_1077" type="bg_car" depart="47" departPos="random_free" departLane="best">
    <route edges="19851365#1 19851365#2 19851365#3 19851365#4 391261422 391115741#0 391115741#1 468101116 866058847 97571125#0 97571125#1 97571125#2 391115731 391115724 362166819#1 391115722 682179937#1 391115725 682178001#1 391115714 19725406#0 19725406#2 530284613#0 341271041#0 341271041#1 341271041#3 391513272 391513276#0 939107933#1 23695714#0 23695714#1 23695768#0 23695768#1 23695745#0 113878159 -113878159"/>
  </vehicle>
  <vehicle id="veh_3031" type="bg_car" depart="47" departPos="random_free" departLane="best">
    <route edges="201209829 5410856#1 5410856#2 1423533355 1423533356#1 137829009#1 109138422 1423533391#1 1423533392 392384228#0 392384228#1 392384228#2 392384227#0 238163760#1 238163760#3 238163760#6 238163760#8 97694715#0 391115743#1 391115743#2 97571125#0 97571125#1 97571125#2 391115731 391115724 362166819#1 391115722 688976925 682179936#1-AddedOnRampEdge 682179936#1"/>
  </vehicle>
  <vehicle id="veh_2931" type="bg_car" depart="48" departPos="random_free" departLane="best">
    <route edges="410647476#3 410647476#4 111424519#1 410647478 410647475 410647477 693403402#0 693403402#1 111424521#0 31730979#1 31730979#2 31730979#3 360817479#1 362166390#0 405704264#1 46834189#1 -22931613 46834195 46834188 -23695578#1 -23695578#0 -1357743128#6 -1357743128#5 -1357743128#4 46157615#0 46157615#1 46834172#1 46834172#2"/>
  </vehicle>
  <vehicle id="veh_889" type="bg_car" depart="49" departPos="random_free" departLane="best">
    <route edges="530597383#1 341113756#1 977477291#0 977477291#1 977477291#2 31623369#0 31623369#1 31623369#2 31623369#3 31623369#4 392386764#0 392386764#1 341113753 341113743 691272005#0 691272005#1 341113749#0 341113749#1 410578189#0 981525356 410561689#0 410561690#0 31730979#1 31730979#2 31730979#3 360817479#1 362166390#0 405704264#1 46834189#1 -22931613 46834195 46834188 -23695578#1 -23695578#0 -1357743128#6 -1357743128#5 -1357743128#4 -1357743128#3 -1357743128#2 -1357743128#0 -1357743127#1 -1357743127#0 678808870#0 97571113#0 97571113#1 586139486 46157683#0 46157683#1 46157683#2 46157683#3 1014010076#1 1014010076#2 384774179#1 384774179#2 384774179#3 1333220790 1272531937#0 1272531937#1 23738909#0 23738909#1 23738909#2 23738909#3 1333220781#0 1333220780#0 397401636#1 397401636#3 397401636#4 1358427942 392191090#0 -138225906#3 -138225906#0 138225906#0"/>
  </vehicle>
  <vehicle id="veh_185" type="bg_car" depart="50" departPos="random_free" departLane="best">
    <route edges="974886432#1 383435482#1 383435482#2 312613403#1 312613403#2 239616488#1 1053366489 723948681 154108367#0 154108367#1 662471679#0 662471679#1 662471679#2 723948680#0 723948680#1 683367280#0 585472237 1015880750#0 -46344780#2 -46344780#1 -46344780#0 -46344781#1 -46344781#0 -46157616#1 46157585#0 46157585#1 1285553875#0"/>
  </vehicle>
  <vehicle id="veh_593" type="bg_car" depart="51" departPos="random_free" departLane="best">
    <route edges="493717868#1 46157581#1 46834194#1 46834194#2 23695578#0 23695578#1 23695578#2 23695578#3 109187803#1 468101135#0 468101135#1 392384226 468101134#1 392384229#0 683626493#1 238163759#0 238163759#1 238163759#2 238163759#3 238163759#4 238163759#5 683385338#0 683268200#0 684057704 1227760875#0 19851145#0 19851145#1 23613206#0 23613206#1 23613206#2"/>
  </vehicle>