<?xml version="1.0" encoding="UTF-8"?>

<!-- generated on 2026-04-12 23:07:55.373192 by randomTrips.py UNKNOWN
<configuration>
    <net-file value="network.net.xml"/>
    <route-file value="routes.rou.xml"/>
    <validate value="True"/>
    <end value="1000.0"/>
</configuration>
-->

<!-- generated on 2026-04-12 23:07:55 by Eclipse SUMO duarouter Version 1.18.0
<configuration xmlns:xsi="http://www.w3.org/2001/XMLSchema-instance" xsi:noNamespaceSchemaLocation="http://sumo.dlr.de/xsd/duarouterConfiguration.xsd">

    <input>
        <net-file value="network.net.xml"/>
        <route-files value="trips.trips.xml"/>
    </input>

    <output>
        <output-file value="routes.rou.xml"/>
        <alternatives-output value="NUL"/>
    </output>

    <time>
        <begin value="0"/>
        <end value="1000.0"/>
    </time>

    <report>
        <no-warnings value="true"/>
        <ignore-errors value="true"/>
        <no-step-log value="true"/>
    </report>

</configuration>
-->

<routes xmlns:xsi="http://www.w3.org/2001/XMLSchema-instance" xsi:noNamespaceSchemaLocation="http://sumo.dlr.de/xsd/routes_file.xsd">
    <vehicle id="0" depart="0.00">
        <route edges="391617560#1 1014010082#2 1014010082#5 384774179#1 384774179#2 384774179#3 391115715#0 391115715#1 391115715#4 391115719#0 391115719#2 391115706 391115732#0 391115732#1 391115732#2 391115705 19725397#0 19725397#2 19725397#3 866058847 50030131 391261427#0 391261427#1 330142318#0 330142318#1 391584012#2 97694774#0 97694774#1 1416818383#0 -169824672#3 -169824672#2 -169824672#1 -169824672#0"/>
    </vehicle>
    <vehicle id="1" depart="1.00">
        <route edges="172208585#2 -31730862#1 -31730862#0 31730838#2 530597383#1 341113756#1 977477291#0 977477291#1 977477291#2 31623369#0 31623369#1 31623369#2 31623369#3 31623369#4 392386764#0 392386764#1 341113753 341113743 691272005#0 691272005#1 341113749#0 341113749#1 410578189#0 981525356 410561689#0 410561690#0 31730979#1 31730979#2 31730979#3 109122021#1 5410856#7 5410856#8 -693403402#1 -693403402#0 693403401 137829006#0"/>
    </vehicle>
    <vehicle id="2" depart="2.00">
        <route edges="45081069#0 45081069#3 442360577#0 442360576 398747428 398772651#0 398772651#1 398772650#0 398772650#1 398772650#2 362166488#0 362166488#2 481651693 1313428455 22931607 405704267#3 22931639#0 22931639#1 683626494#0 238163760#1 238163760#3 238163760#6 238163760#8 97694715#0 391115743#1 391115743#2 97571125#0 97571125#1 97571125#2 391115731 391115724 362166819#1 391115722 682179937#1 391115725 682178001#1 391115714 19725406#0 19725406#2 530284613#0 529689866#0 391261434#0 391590539#0 391590539#1 391590539#2 391590538#1 394427567#1"/>
    </vehicle>
    <vehicle id="3" depart="3.00">
        <route edges="693403399#3 137829006#2 686083097#0 111424519#1 410647478 410647475 410647477 693403402#0 693403402#1 111424521#0 360817476#0 360816809#1 691272004 -182554514#5 -182554514#4 -182554514#3 -182554514#2 -182554514#1 -182554514#0 31623352#1 31623352#2 31623352#3 31623352#4 31623352#5 31623352#6 691272002#0 691272002#1 31623346#0 31623346#2 31623346#3 691272001#0 691272001#1 26594894#1 26594894#2 -31730492"/>
    </vehicle>
    <vehicle id="4" depart="4.00">
        <route edges="26973879#2 234857064#1 392193476#1 391585276#1 391585276#2 391115741#0 391115741#1 468101116 866058847 97571125#0 97571125#1 97571125#2 391115731 391115724 362166819#1 391115722 682179937#1 391115725 682178001#1 391115714 19725406#0 19725406#2 23613098#0 23613098#1 23613098#2 1017821972#3 1017821972#4 97678475#0 97678475#1 97678475#2 97678475#3 97678475#4 97678475#5 691272006#0 691272006#1 341113754 31623370#0 31623370#1 31623370#2 31623370#3 31623370#4 31623370#5 392386765#1 97678478#0 97678478#1 392386763#0 392386763#1 530597384#1 -31730838#2 -31730838#1 -31730838#0 -1296481097 172208585#0 172208585#1 172208588 -172208588"/>
    </vehicle>
    <vehicle id="6" depart="6.00">
        <route edges="-172208588 172208585#2 -31730862#1 -31730862#0 31730838#2 530597383#1 341113756#1 977477291#0 977477291#1 977477291#2 97678474 392386766#0 392386761 939107930 97678453#0 529689866#0 530284616#0 19851338#0 19851338#1 19851338#2 391115733#0 391115733#1 238054156 19725392 391261424#0 391261424#1 391115721#0 391115721#1 391115700#0 391115700#1 391115717#0 391115717#1 391261421 330142319#0 330142319#1 19725393#0 19725393#1 19725393#2 391115701 391115703#0 391115703#2 391115710#1 391115710#2 391115710#3 391115710#4 1272531937#0"/>
    </vehicle>
    <vehicle id="9" depart="9.00">
        <route edges="46834197#1 46834197#2 46834197#3 -586598803 -1357743128#8"/>
    </vehicle>
    <vehicle id="10" depart="10.00">
        <route edges="46834190#0 405704269#1 743557034 743557033 405704266#1 23148382#0 398772649#0 398772649#2 -398772650#2 -398772650#1 -398772650#0 362166393#0 398747429#0 398747429#1 398747430#0 398747430#1 362166817#0 362166817#2 362166817#3 399282416#0 399282416#2"/>
    </vehicle>
    <vehicle id="11" depart="11.00">
        <route edges="23613206#2 1386934158#1 392384228#0 392384228#1 392384228#2 392384227#0 405704264#1 405704269#1 743557034 743557033 405704266#1 23695646#0 23695646#1 23695646#2 23695646#3 23695646#4 481902581#0 481902581#1 481902581#2 683367280#0 585472237 1015880750#0"/>
    </vehicle>
    <vehicle id="12" depart="12.00">
        <route edges="974886435#0 974886435#2 26973864#0 26973864#1 26973864#2 915104360 915104360-AddedOffRampEdge 392193475#0 392193477#0 392193477#1 931605682 234857064#1 392193476#1 391585276#1 391585276#2 391115741#0 391115741#1 468101116 468101113#0 468101113#1 109187800#0 97694784 23613257#0 23613257#0-AddedOffRampEdge 23613257#1"/>
    </vehicle>
    <vehicle id="13" depart="13.00">
        <route edges="-336162416#0 336162416#0 336162416#1 -336162416#1"/>
    </vehicle>
    <vehicle id="14" depart="14.00">
        <route edges="5449270#2 5449270#3 934007251#0 934007251#1 934007250#0 398772651#0 398772651#1 398772650#0 398772650#1 398772650#2 362166488#0 362166488#2 481651693 1313428455 22931607 405704267#3 22931639#0 22931639#1 683626494#0 238163760#1 238163760#3 238163760#6 238163760#8 97694715#0 391261431#0 391261431#1 391261431#2"/>
    </vehicle>
    <vehicle id="15" depart="15.00">
        <route edges="46834194#1 46834194#2 23695578#0 23695578#1 23695578#2 23695578#3 109187803#1 468101135#0 468101135#1 392384226 468101134#1 392384229#0 683626493#1 238163759#0 238163759#1 238163759#2 238163759#3 238163759#4 238163759#5 391475615 743557031 391475610#0 602723747#1 46607940#0 46607940#2 46607940#4 46607940#5 391475605 391475607#0 391475608#1 442508391#0"/>
    </vehicle>
    <vehicle id="16" depart="16.00">
        <route edges="362166817#2 45081069#3 442360577#0 442360576 398747428 398772651#0 398772651#1 398772650#0 398772650#1 398772650#2 362166488#0 362166488#2 481651693 1313428455 22931607 405704267#3 22931639#0 22931639#1 683626494#0 238163762#1 410602090#0 362166392#1 362166392#3 360817476#0 410578191#0 410578191#1 410578190#0 410578193#1 360816804 410578192#0 410578192#1 341113747 341113753 31623365#0 31623365#1 31623365#2 31623365#3 31623365#4 392386766#0 1017821972#3 1017821972#4 97678475#0 97678475#1 97678475#2"/>
    </vehicle>
    <vehicle id="17" depart="17.00">
        <route edges="23695714#1 23695714#2 23695714#3 23695714#4 23695714#5 23695714#6 410678957#2 410678957#3 31730880#2 31730880#4 410678958#0 410678958#1 97678472#0 97678472#1 31623365#2 31623365#3 31623365#4 392386766#0 392386761 939107930 97678453#0 529689866#0 530284616#0 19851338#0 19851338#1 19851338#2 391115733#0 391115733#1 238054156 19725392 391261424#0 391261424#1 391115721#0 391115721#1 391115700#0 391115700#1 391115717#0 391115717#1 391261421 330142319#0 330142319#1 19725393#0 19725393#1 19725393#2 391261416#0 391261416#1 391115709 391115698#0"/>
    </vehicle>
    <vehicle id="18" depart="18.00">
        <route edges="495221433#1 495221433#2 46834183 46834194#0 46834194#1 46834194#2 23695578#0 23695578#1 23695578#2 23695578#3 109187803#1 468101135#0 468101135#1 392384226 238163760#3 238163760#6 238163760#8 97694715#0 391115743#1 391115743#2 97571125#0 97571125#1 97571125#2 391115731 391115724 362166819#1 391115722 682179937#1 391115725 682178001#1 391115714 19725406#0 19725406#2 530284613#0 341271041#0 341271041#1 341271041#3 391513272 391513276#0 391513297"/>
    </vehicle>
    <vehicle id="19" depart="19.00">
        <route edges="644021298#1 410561690#0 31730979#1 31730979#2 31730979#3 360817479#1 362166390#0 238163760#1 238163760#3 238163760#6 238163760#8 97694715#0 391115743#1 391115743#2 50030131 391261421 330142319#0 330142319#1 19725393#0 19725393#1 19725393#2 391115701 391115703#0 391115703#2 391115710#1 391115710#2 391115710#3 391115710#4 391115728#0 391115728#1 391115728#2 383435481#0 383435481#1 383435481#2 383435481#3 391115729"/>
    </vehicle>
    <vehicle id="20" depart="20.00">
        <route edges="408816686#1 408816686#2 408816685 644021301 644021294 644021298#0 644021298#1 410561690#0 31730979#1 31730979#2 31730979#3 360817479#1 362166390#0 405704264#1 46834189#1 -22931613 46834195 46834188 -23695578#1 -23695578#0"/>
    </vehicle>
    <vehicle id="21" depart="21.00">
        <route edges="138225906#2 -138225906#3 -138225906#0 399135146#0 399135146#1 399135146#2 399135146#3-AddedOnRampEdge 399135146#3 399135146#4 106811317#0 106811317#2 106811317#3 106811317#6 106811317#8 106811317#9 1113383548 1113383549#0 1113383549#1 1014010083#0 1014010083#1 46522857#0 138255984 666544871#0 666544871#1 448822920#0 448822920#1 442360577#0 398772648#1 398772648#2 683380104#0 391475609#1 391475604#0 391475604#1 1010073307 112360900#0 112360900#2 112360900#3 112360900#5 112360900#6 391475614#0 19724704#1 19724704#2 19724730#1"/>
    </vehicle>
    <vehicle id="22" depart="22.00">
        <route edges="-31623352#5 -31623352#4 -31623352#3 -31623352#2 -31623352#1 182554514#0 182554514#1 182554514#2 182554514#3 182554514#4 182554514#5 408816685 644021301 644021294 644021298#0 644021298#1 410578191#0 410578191#1 410578190#0 410578193#1 360816804 410578192#0 410578192#1 341113747 341113753 31623365#0 31623365#1 31623365#2 31623365#3 31623365#4 392386766#0 392386761 939107930 97678453#0 341271041#0 341271041#1 341271041#3 391513272 391513276#0 939107933#1 345796619 345796618#1 345796618#2 939107932#0 939107932#1 91356467#0 91356467#1 91356467#2 91356467#3 91356467#4 91356467#5 1214435279#1 138371905#0 138371905#1"/>
    </vehicle>
    <vehicle id="23" depart="23.00">
        <route edges="-391513297 939107933#1 23695714#0 23695714#1 23695714#2 23695714#3 23695714#4 23695714#5 23695714#6 410678957#2 410678957#3 31730880#2 31730880#4 410678958#0 410678958#1 410678958#2 410678958#3 341113743 341113754 31623370#0 31623370#1 31623370#2 31623370#3 31623370#4 31623370#5 392386765#1 97678478#0 97678478#1 392386763#0 392386763#1 530597384#1 -31730838#2 31730862#0 172215134#0 172215134#1"/>
    </vehicle>
    <vehicle id="24" depart="24.00">
        <route edges="391593640#4 391115698#4 391115698#5 391115698#6 391115698#7 391115698#8 391115698#9 1113383552#0 1113383552#1 391261418 391115727#0 391115727#1 391115727#2 391115715#0 391115715#1 391115715#4 391115719#0 391115719#2 391115706 391115732#0 391115732#1 391115732#2 97571129 97571114 169825229 391115722 23695711#0 23695711#1 -233262583 -728801591#0 23695698#1 23695698#2 -731858362#3 -731858362#2 -731858362#1 23695676#1"/>
    </vehicle>
    <vehicle id="25" depart="25.00">
        <route edges="23695691#1 23695691#2 731858362#1 731858362#2 731858362#3 731858362#4 731858362#5 731858362#6 360816363#1 360816363#2 139191187#0 139191187#1 410561690#0 31730979#1 31730979#2 31730979#3 360817479#1 362166390#0 238163760#1 238163760#3 238163760#6 238163760#8 468101300#1 468101300#2 468101300#3 23695614 1357743127#0"/>
    </vehicle>
    <vehicle id="26" depart="26.00">
        <route edges="154108367#0 154108367#1 662471679#0 662471679#1 662471679#2 723948680#0 1006604798#0 1006604798#1 1006604798#2 45759413#0 45759413#1 45759413#2 398747429#0 398747429#1 398772648#1 398772648#2 683380104#0 391475609#1 391475604#0 391475604#1 1010073307 97313114#0"/>
    </vehicle>
    <vehicle id="27" depart="27.00">
        <route edges="392160370#0 392160369#1 392160369#3 392160369#6 392160369#10 392193476#1 391585276#1 391585276#2 391115741#0 391115741#1 468101116 468101113#0 468101113#1 109187800#0 97694784 23613257#0 23613257#0-AddedOffRampEdge 771804450 45759625 391475610#0 602723747#1 46607940#0 46607940#2 46607940#4 46607940#5 391475605 391475607#0"/>
    </vehicle>
    <vehicle id="28" depart="28.00">
        <route edges="109122043#2 109122041 109122026#0 392384226 468101134#1 392384229#0 405704264#1 405704269#1 743557034 743557033 405704266#1 23148382#0 398772649#0 398772649#2 -398772650#2 -398772650#1 -398772650#0 362166393#0 398747429#0 398747429#1 398747430#0 398747430#1 442360577#0"/>
    </vehicle>
    <vehicle id="29" depart="29.00">
        <route edges="1079636120#5 328150885#0 138225906#0 138225906#2 -392191090#1 -1358427942 138224199#0 138224198 392191093#0 97375640#0 97375640#1 931605682 234857064#1 392193476#1 391585276#1 391585276#2 391115741#0 391115741#1 468101116 866058847 97571125#0 97571125#1 97571125#2 391115731 391115724 362166819#1 391115722 682179937#1 391115725 682178001#1 391115714 19725406#0 19725406#2 530284613#0 341271041#0 341271041#1 341271041#3 391513272 391513276#0 939107933#1 23695714#0 23695714#1 23695768#0 23695768#1 23695745#0"/>
    </vehicle>
    <vehicle id="30" depart="30.00">
        <route edges="97704835 392160374#0 392160375#0 392160375#2 392160375#3 391593637#0 391590536#0 391590536#2 391590536#3 391115694#0 391115694#1 942844987 743557036 391115697#0 391115697#1 391617562#1"/>
    </vehicle>
    <vehicle id="31" depart="31.00">
        <route edges="391115698#3 391115698#4 391115698#5 391115698#6 391115698#7 391115698#8 391115698#9 1113383552#0 1113383552#1 391261418 391261419 391617563#0 391617563#1 383435482#1 383435482#2 -23659260#3 -397401652#3 -397401652#2 -397401652#1 397401652#1 397401652#2 397401652#3"/>
    </vehicle>
    <vehicle id="32" depart="32.00">
        <route edges="5410856#2 1423533355 1423533356#1 137829009#1 109138422 1423533391#1 1423533392 392384228#0 392384228#1 392384228#2 392384227#0 238163760#1 238163760#3 238163760#6 238163760#8 468101300#1 468101300#2 468101300#3 23695614 678808870#0 97571113#0 97571113#1 583803098 336162419 -336162416#7 -336162416#6 -336162416#5 -336162416#4 -336162416#3 -336162416#2 -336162416#1 -336162416#0 46157615#4 46344773#0"/>
    </vehicle>
    <vehicle id="33" depart="33.00">
        <route edges="138258184#0 397401636#1 397401636#3 397401636#4 138224199#0 138224198 392191093#0 97375640#0 97375640#1 931605682 234857064#1 392193476#1 391585276#1 391585276#2 391115741#0 391115741#1 468101116 866058847 97571125#0 97571125#1 97571125#2 391115731 391115724 362166819#1 391115722 682179937#1 391115725 682178001#1 391115714 19725406#0 19725406#2 23613098#0 23613098#1 23613098#2 1017821972#3 1017821972#4 97678475#0 97678475#1 97678475#2 97678475#3 97678475#4 97678475#5 691272006#0 691272006#1 341113754 31623370#0 31623370#1 31623370#2 31623370#3 31623370#4 31623370#5 392386765#1 97678478#0 97678478#1 392386763#0 392386763#1 530597384#1 -31730838#2 -31730838#1 -31730838#0 31730833#0 -172215109"/>
    </vehicle>
    <vehicle id="34" depart="34.00">
        <route edges="19851417#1 1113383551#0 1113383551#1 1113383551#2 384774179#3 391115715#0 391115715#1 391115715#4 391115719#0 391115719#2 391115706 391115732#0 391115732#1 391115732#2 391115705 19725397#0 19725397#2 19725397#3 866058847 50030131 391261427#0 391261427#1 330142318#0 330142318#1 391584012#2 97694774#0 97694774#1 1416818383#0 -169824672#3 -169824672#2 -169824672#1 -169824672#0 169824672#0 169824672#1 169824672#2 169824672#3"/>
    </vehicle>
    <vehicle id="35" depart="35.00">
        <route edges="1357743128#3 1357743128#4 1357743128#5 1357743128#6 23695578#0 23695578#1 23695578#2 23695578#3 109187803#1 468101135#0 468101135#1 392384226 238163760#3 238163760#6 238163760#8 97694715#0 391115743#1 391115743#2 50030131 391261427#0 391261427#1 330142318#0 330142318#1 330142320#1 330142320#2 397401637#0 397401637#1 397401637#2 -392191096 392193477#0 392193477#1 97375642#0 97375642#1 97375642#2 392191093#0 97375640#0 97375640#1"/>
    </vehicle>
    <vehicle id="37" depart="37.00">
        <route edges="392191086#2 915104360 915104360-AddedOffRampEdge 392193475#0 392193477#0 392193477#1 931605682 234857064#1 392193476#1 391584012#2 97694774#0 97694774#1 1416818383#0 1416818383#1 682179944 97681177#1 97681177#2 1416818377#0 1416818377#1 1416818377#2 238480194#1 238480194#2"/>
    </vehicle>
    <vehicle id="38" depart="38.00">
        <route edges="895167254#0 384774179#1 384774179#2 384774179#3 391115715#0 391115715#1 391115715#4 391115719#0 391115719#2 391115706 391115732#0 391115732#1 391115732#2 97571129 97571114 169825229 391115722 682179937#1 391115725 682178001#1 391115714 19725406#0 19725406#2 23613098#0 23613098#1 23613098#2 1017821972#3 1017821972#4 97678475#0 97678475#1 97678475#2 97678475#3 97678475#4 97678475#5 691272006#0 691272006#1 341113754 31623370#0 31623370#1 31623370#2 31623370#3 31623370#4 31623370#5 392386765#1 97678478#0 97678478#1 392386763#0 392386763#1 341113756#1 977477291#0 977477291#1 977477291#2 31623369#0 31623369#1 31623369#2 31623369#3"/>
    </vehicle>
    <vehicle id="39" depart="39.00">
        <route edges="151889296#1 46834759#0 46834759#1 46834759#2 46834759#3 46834759#4 46834175#1 336162416#5 336162416#6 336162416#7 531255045#0 531255045#1 531347572 391617561#1 391617561#2 391617559#1 865308211#1 391115743#1 391115743#2 50030131 391261427#0 391261427#1 330142318#0 330142318#1 391584012#2 97694774#0 97694774#1 1416818383#0 1416818383#1 682179944 910500578#1 1415945423#0 97375638#2 97375638#3 97375638#4 97375638#5 1416818381 974886443#0 974886443#1 1338466955 -1416818376#1 -1416818376#0 -26974013#4 -26974013#3 -26974013#2 -26974013#1 -26974013#0 252967467#0 252967467#1 252967467#2 252967467#4 119866361#0 119866361#1 119866361#2 1415945422#0"/>
    </vehicle>
    <vehicle id="40" depart="40.00">
        <route edges="391115700#1 391115717#0 391115717#1 391261421 330142319#0 330142319#1 19725393#0 19725393#1 19725393#2 391115701 391115703#0 391115703#2 391115710#1 391115710#2 391115710#3 391115710#4 391115728#0 391115728#1 391115728#2 383435481#0 383435481#1 383435481#2 383435481#3 1113383548 1113383549#0 1113383549#1 1014010083#0 1014010083#1 46522857#0 138255984 666544871#0 666544871#1 448822920#0 152622213#0"/>
    </vehicle>
    <vehicle id="41" depart="41.00">
        <route edges="391115733#1 238054156 19725392 391261424#0 391261424#1 391115721#0 391115721#1 391115700#0 391115700#1 391115717#0 391115717#1 391261421 468101116 468101113#0 468101113#1 109187800#0 391261431#0 391261431#1 391261431#2 468101139 468101138 468101137 468101136#1 109187803#0 109187803#1 468101135#0 468101135#1 392384226 468101134#1 392384229#0 405704264#1 405704269#1 743557034 743557033"/>
    </vehicle>
    <vehicle id="43" depart="43.00">
        <route edges="987349693#3 141760874#0 141760874#1 141760874#6 141760874#7 360078274#3 360078274#4 360078274#5 360078274#6 360078274#7 360078274#8 391590538#1 394427567#1 19851338#0 19851338#1 19851338#2 391115733#0 391115733#1 238054156 344810872"/>
    </vehicle>
    <vehicle id="44" depart="44.00">
        <route edges="-31730838#2 31730838#2 530597383#1 341113756#1 977477291#0 977477291#1 977477291#2 97678474 392386766#0 392386761 939107930 97678453#0 529689866#0 530284616#0 19851338#0 19851338#1 19851338#2 391115733#0 391115733#1 238054156 19725392 391261424#0 391261424#1 391115721#0 391115721#1 391115700#0 391115700#1 391115717#0 391115717#1 391261421 468101116 468101113#0 468101113#1 109187800#0 391261431#0 391261431#1 391261431#2 468101139 468101138 468101137 468101136#1 109187803#0 -23695578#3 -23695578#2"/>
    </vehicle>
    <vehicle id="45" depart="45.00">
        <route edges="-439967842#0 391115721#0 391115721#1 391115700#0 391115700#1 391115717#0 391115717#1 391261421 330142319#0 330142319#1 19725393#0 19725393#1 19725393#2 391261416#0 391261416#1 391261417#0 391261417#1 1213880672 391590536#2 391590536#3"/>
    </vehicle>
    <vehicle id="46" depart="46.00">
        <route edges="468101300#1 468101300#2 97473685#0 97473685#1 865308211#1 391115743#1 391115743#2 50030131 391261427#0 391261427#1 330142318#0 330142318#1 330142320#1 392193478#1 26973916#1"/>
    </vehicle>
    <vehicle id="47" depart="47.00">
        <route edges="-26973907#3 -26973907#2 -26973907#1 -486192528#1 -486192528#0 97375641#4 97375641#5 97375641#1 391584013 24692321#0 24692321#1 97694774#0 97694774#1 391115689#0 391115689#2 -439967842#1 -439967842#0 -391115691 362166819#1 391115722 682179937#1 391115725 682178001#1 391115714 19725406#0 19725406#2 530284613#0 341271041#0 341271041#1 341271041#3 391513272 391513276#0 939107933#1 23695714#0 23695714#1 23695768#0 23695768#1 138371903#0 138371903#1 243153286#0 23695753#0 23695753#1"/>
    </vehicle>
    <vehicle id="48" depart="48.00">
        <route edges="98669711#0 391475616#0 391475616#1 934043171#0 391475609#1 391475604#0 391475604#1 1010073307 97313114#0 442508391#0 442508391#1 442508391#2 442508391#3 934007250#0 362166396#2 362166396#3 362166396#4 97695292#0 97695292#1 97695292#2 398772649#0 398772649#2 -398772650#2 -398772650#1 -398772650#0 362166393#0"/>
    </vehicle>
    <vehicle id="49" depart="49.00">
        <route edges="97678469#1 31623370#2 31623370#3 31623344#0 31623344#1 31623344#2 31623344#3 31623344#4 31623344#5 31623344#6 939110473#0 981525356 410561689#0 360816809#1 691272004 408816685 644021301 644021294 644021298#0 644021298#1"/>
    </vehicle>
    <vehicle id="50" depart="50.00">
        <route edges="-138371906#2 -138371906#1 -138371906#0 138371906#0 138371906#1 138371906#2 243153286#0 243153286#1 243153286#2 23695714#4 23695714#5 23695714#6 410678957#2 410678957#3 31730880#2 408823810#5 408823810#6 408823810#7 410678956#1 410678956#2 408823811 410678953 410678955#1"/>
    </vehicle>
    <vehicle id="51" depart="51.00">
        <route edges="397401631#2 895167254#0 384774179#1 384774179#2 384774179#3 1333220790 391115728#0 391115728#1 391115728#2 383435481#0 383435481#1"/>
    </vehicle>
    <vehicle id="52" depart="52.00">
        <route edges="154108367#0 154108367#1 662471679#0 662471679#1 662471679#2 723948680#0 723948680#1 683367280#0 683367280#1 397401631#0 397401631#1 397401631#2 895167254#0 384774179#1 384774179#2 384774179#3 1333220790 391115728#0 391115728#1 391115728#2 391261418 391261419 391617563#0"/>
    </vehicle>
    <vehicle id="53" depart="53.00">
        <route edges="-46157609#1 46834197#0 46834197#1 46834197#2 46834197#3 336162420#0 336162420#1 46834195 46834188 23695578#2 23695578#3 109187803#1 468101135#0 468101135#1 392384226 468101134#1 392384229#0 683626493#1 238163759#0 238163759#1 238163759#2 238163759#3 238163759#4 238163759#5 391475615 743557031 391475610#0 310014585#1"/>
    </vehicle>
    <vehicle id="54" depart="54.00">
        <route edges="31623352#5 -31623352#5 -31623352#4 -31623352#3 -31623352#2 -31623352#1 182554514#0 182554514#1 182554514#2 182554514#3 182554514#4 182554514#5 408816685 644021301 644021294 644021298#0 644021298#1 410561690#0 31730979#1 31730979#2 31730979#3 360817479#1 362166390#0 683626493#1 238163759#0 238163759#1 238163759#2 109138428#0 109138428#1 97473706#0"/>
    </vehicle>
    <vehicle id="55" depart="55.00">
        <route edges="683377482#0 45759631#0 45759631#1 45759631#2 45081069#3 442360577#0 442360576 398747428 362166396#2 362166396#3 362166396#4 1462979768 481902581#0 481902581#1 481902581#2 683367280#0 683367280#1 138224195 384774178#0 384774178#1 384774178#2 384774178#3 239616488#0 239616488#1 154108364"/>
    </vehicle>
    <vehicle id="56" depart="56.00">
        <route edges="336162416#6 336162416#7 531255045#0 531255045#1 531347572 531347575#1 1357743127#0 1357743127#1 1357743128#0 1357743128#2 1357743128#3 1357743128#4 1357743128#5 1357743128#6 23695578#0 23695578#1 23695578#2 23695578#3 109187803#1 468101135#0 468101135#1 392384226 391619231#1 97694674#0 97694674#1 97694674#2 109122040 1112745990"/>
    </vehicle>
    <vehicle id="57" depart="57.00">
        <route edges="866366683#0 26973864#1 26973864#2 915104360 915104360-AddedOffRampEdge 392193475#0 392193477#0 392193477#1 931605682 234857064#1 392193476#1 391585276#1 391585276#2 391115741#0 391115741#1 468101116 866058847 97571125#0 97571125#1 97571125#2 391115731 391115724 362166819#1 391115722 688976925 682179936#1-AddedOnRampEdge"/>
    </vehicle>
    <vehicle id="58" depart="58.00">
        <route edges="19725112#1 19725112#2 19725112#3 19725112#4 5449341#0 5449341#1 405704267#3 22931639#0 22931639#1 683626494#0 238163760#1 238163760#3 238163760#6 238163760#8 468101300#1 468101300#2 468101300#3 23695614 678808870#0 391617561#1"/>
    </vehicle>
    <vehicle id="59" depart="59.00">
        <route edges="391475604#0 391475604#1 1010073307 97313114#0 442508391#0 442508391#1 442508391#2 442508391#3 934007250#0 362166396#2 362166396#3 362166396#4 1462979768 481902581#0 481902581#1 481902581#2 683367280#0 683367280#1 397401631#0 397401631#1 397401631#2 895167254#0 974886432#1 391617560#1 1014010083#0 1014010083#1"/>
    </vehicle>
    <vehicle id="60" depart="60.00">
        <route edges="46157601#2 1285553872#1 46157592#0 46157588#1 46157588#2 46834181#1 46834181#2 336162416#4 336162416#5 336162416#6 336162416#7 531255045#0 531255045#1 531347573 97571113#1 586139486 46157683#0 46157683#1 46157683#2 46157683#3 1014010076#1 1014010076#2 974886432#1 383435482#1 383435482#2"/>
    </vehicle>
    <vehicle id="61" depart="61.00">
        <route edges="46344773#3 46834181#2 336162416#4 336162416#5 336162416#6 336162416#7 531255045#0 531255045#1 531347573 97571113#1 586139486 586139487 397401652#1 397401652#2 397401652#3 23659260#1 23659260#6 46522857#0 138255984 666544871#0 666544871#1 448822920#0 448822920#1 442360577#0 442360576 398747428 362166396#2"/>
    </vehicle>
    <vehicle id="62" depart="62.00">
        <route edges="-1112745990 109122043#5 -97694722#0 -849054631#0 -23695597#1 -23695597#0 -391261430#1 362166819#1 391115722 682179937#1 391115725 682178001#1 391115714 19725406#0 19725406#2 530284613#0 529689866#0 391261434#0 391590539#0 391590539#1 391590539#2 22932084#1 22932084#2 22932084#3 22932084#4"/>
    </vehicle>
    <vehicle id="63" depart="63.00">
        <route edges="-141760874#0 141760874#0 141760874#1 141760874#6 141760874#7 360078274#3 360078274#4 360078274#5 360078274#6 360078274#7 360078274#8 391590538#1 394427567#1 19851338#0 19851338#1 19851338#2 391115733#0 391115733#1 238054156 19725392 391261424#0 391261424#1 391115721#0 391115721#1 391115700#0 391115700#1 391115717#0 391115717#1 391261421 330142319#0 330142319#1 19725393#0 19725393#1 19725393#2 391115701 942844987"/>
    </vehicle>
    <vehicle id="64" depart="64.00">
        <route edges="683383740#2 683383740#3 442508391#0 442508391#1 442508391#2 442508391#3 934007250#0 398772651#0 398772651#1 398772650#0 398772650#1 398772650#2 362166488#0 362166488#2 481651693 1313428455 22931607 405704267#3 22931639#0 22931639#1 683626494#0 238163760#1 238163760#3 238163760#6 238163760#8 97694715#0 391115743#1 391115743#2 50030131"/>
    </vehicle>
    <vehicle id="65" depart="65.00">
        <route edges="19725406#2 530284613#0 529689866#0 391261434#0 391590539#0 391590539#1 391590539#2 391590529#2 391590529#3 391590529#4 1416818372#0 1416818372#1 97681174 682179943#0 682179943#1 682179943#2 391584011#1 -24692321#2 -24692321#0"/>
    </vehicle>
    <vehicle id="66" depart="66.00">
        <route edges="683383740#1 683383740#2 683383740#3 442508391#0 442508391#1 442508391#2 442508391#3 934007250#0 398772651#0 398772651#1 398772650#0 398772650#1 398772650#2 362166488#0 362166488#2 481651693 1313428455 22931607 405704267#3 22931639#0 22931639#1 683626494#0 238163760#1 238163760#3 238163760#6 238163760#8 97694715#0 391115743#1 391115743#2 50030131 391261427#0 391261427#1 330142318#0 330142318#1 391584012#2 97694774#0 97694774#1 1416818383#0 1416818383#1 682179944 910500578#1 1415945423#0 97375638#2 97375638#3 97375638#4 97375638#5 1416818381 683644984 974886441 97375648 97375650#0 97375650#1"/>
    </vehicle>
    <vehicle id="67" depart="67.00">
        <route edges="-31730489#2 -31730489#1 -31730489#0 -31730486#1 -31730486#0 683634478#2 683634478#3 182554514#0 182554514#1 182554514#2 182554514#3 182554514#4 182554514#5 408816685 644021301 644021294 644021298#0 644021298#1 410561690#0 31730979#1"/>
    </vehicle>
    <vehicle id="68" depart="68.00">
        <route edges="-31623344#4 -31623344#3 -31623344#2 31623344#2 31623344#3 31623344#4 31623344#5 31623344#6 939110473#0 981525356 410561689#0 410561690#0 31730979#1 31730979#2 31730979#3 360817479#1 362166390#0 405704264#1 405704269#1 743557034 743557033 405704266#1 23695646#0 23695646#1 23695646#2 23695646#3 23695646#4 481902581#0 481902581#1 481902581#2 683367280#0 585472237 1015880750#0 -46344780#2 -46344780#1 46157601#0 46157601#1 46157601#2"/>
    </vehicle>
    <vehicle id="69" depart="69.00">
        <route edges="46157615#1 46157615#2 46834759#0 46834759#1 46834759#2 46834759#3 46834759#4 46834175#1 336162416#5 336162416#6 336162416#7 531255045#0 531255045#1 531347573 97571113#1 586139486 586139487 397401652#1 397401652#2 397401652#3 23659260#1 23659260#6 46522857#0 -666544870"/>
    </vehicle>
    <vehicle id="70" depart="70.00">