<routes>
  <vType id="bg_car" vClass="passenger" accel="2.6" decel="4.5" tau="0.7" minGap="0.5" sigma="0.8"/>
  <vehicle id="veh_2514" type="bg_car" depart="0" departPos="random_free" departLane="best">
    <route edges="133606372#0 133606372#1 258798209 507818808 133606374#0 133606374#1 133606374#2 133606374#3 258798210 408687064 160500161#0 160500161#1 258798208#1 508701860#1 8382605#0 8382605#1 8382605#2 8382605#3 8382605#4 8382605#5 -8382609#0"/>
  </vehicle>
  <vehicle id="veh_87" type="bg_car" depart="1" departPos="random_free" departLane="best">
    <route edges="-32948216#4 -32948216#3 -32948216#1 -32948216#0 147767361#2 32902628#1 462114167#1 951326615#0 951326613 462120960#0 951326616 24614095 -147764415#2 -147764415#1 -24614098 -40798328#0 -842324385 842324384#0 842324384#1 842324384#2 842324382 413389238 279260255 147764366#0 147764366#1 147764366#2 155433192#1 -31903374#5 -31903374#4 -31903374#3 -31903374#2 -31903374#1 -31903374#0 946428995 946428994 946436362#0 946436362#1 946436362#2 23176151#1 -23176139#1"/>
  </vehicle>
  <vehicle id="veh_1585" type="bg_car" depart="2" departPos="random_free" departLane="best">
    <route edges="133606374#2 133606374#3 258798210 408687064 160500256#0 -160488732#2 -160488732#1 -160488732#0 160488845#2 160488845#3 -160488728#2 -160488728#1 -160488728#0 160488843#2 160488843#3 -160282505#2 -160282505#1 -160282505#0 160282530#3 160282530#4 160282530#0 160282506 8382601#0"/>
  </vehicle>
  <vehicle id="veh_933" type="bg_car" depart="3" departPos="random_free" departLane="best">
    <route edges="147714211#1 147714211#2 147714211#3 147767361#2 32902628#1 462114167#1 951326615#0 951326613 462120960#0 951326616 24614095 -147764415#2 -147764415#1 -24614098 -40798328#0 -842324385 842324384#0 842324384#1 842324384#2 842324382 842329003#0 842329003#1 -842329002 -842329004#1 -842329004#0 842343890 842343889 -40798330#2 -40798330#0 31669960#0 31669960#1 147714156#1 147714156#5 147714156#6 475163008 147714223#0 147714223#1 147714223#2 524438439#0 -475163002 475163012#0 475163012#1 475163012#2 -475163004#2 -475163004#1 -475163004#0 475163004#0"/>
  </vehicle>
  <vehicle id="veh_1763" type="bg_car" depart="5" departPos="random_free" departLane="best">
    <route edges="160085195#4 160085195#1 160085171#0 160085171#1 160085171#2 160282530#0 160282506 8382601#0"/>
  </vehicle>
  <vehicle id="veh_883" type="bg_car" depart="7" departPos="random_free" departLane="best">
    <route edges="147759763#1 147759763#2 147759763#3 147759763#4 147759763#5 147759763#8 147759763#9 318862223 147714167#0 147714167#1 147714154#0 147714154#1 1005699289#2 147714200#1 147714200#2 147714200#3 147759776#15 147759776#16 147759776#17 -32902687#1 -716676855 -147714143#3 -147714143#2 -147714143#1 -147714143#0 14504180#1 147764415#1 147764415#2 307580150 508690455 -951326616 -462120960#1 462120961 951326614#0 951326614#1 -147764418#7 -147764418#5 -147764418#3 -147764418#2 -147764418#1 -147764418#0 -147764381#1 -1473966234#1 -1473966234#0 -508690456#1 -852990529 -8382518#2 -8382518#1 -8382518#0 -832629330#1 -832629330#0 307580144#0 307580144#1 8139692#0 8139692#1 8139692#2 1095324879 832629329 1077211223#1 31428600#0"/>
  </vehicle>
  <vehicle id="veh_37" type="bg_car" depart="8" departPos="random_free" departLane="best">
    <route edges="182008773 145573046#0 976007362 84400649#0 84400649#1 84400649#2 31904032 -31903822#4 -31903822#3 -31903822#2 -36250381 -542100334#5 -542100334#3 -542100334#1 -542100334#0 1465611468#0 1465611468#1 -155433193#3 -155433193#2 -155433193#1 -155433193#0 147764368#0 147764368#1 147764368#2 279260256#0 279260256#1 40798329#0 40798329#1 842324385 40798328#0 24614098 147764415#1 147764415#2 307580150 508690455 -951326616 14461009#0"/>
  </vehicle>
  <vehicle id="veh_2542" type="bg_car" depart="9" departPos="random_free" departLane="best">
    <route edges="-594566874#0 594566876#4 594566876#1 -243570314#1 -243570314#0 -133606375#1 -133606375#0 507818808 133606372#0 -8139836#3 -8139836#2 -8139836#1 -8139836#0 549216803#1 549216803#2 147764344#0 147764344#1 147764344#4 147764344#6 147764344#7 791118786#4 791118786#1 715149751#0 715149751#1 160192234#2 160192234#5 715149750#1 1346698509#0 1346698509#1 159985930#0 159985930#1 159985930#2 257034872 147767361#2 147714202#1 147714202#2 -147764396 147764394 147764359#1 147764359#0"/>
  </vehicle>
  <vehicle id="veh_2568" type="bg_car" depart="9" departPos="random_free" departLane="best">
    <route edges="-147759780#1 -692636313#2 -692636313#1 -692636313#0 147714167#0 147714167#1 147714154#0 147714154#1 1005699289#2 231063264#1 231063264#2 231063264#3 -147759776#9 -147759776#5 -147759776#4 -147759776#3 -147759776#2 -147759776#0 -8386670#1 -8386670#0 542415804#0 542415804#1 424538847 -308337921#2 -308337921#1 -308337921#0 -308337920#0 -147714220#2 -147714220#1 -147714220#0 -147714221#3 -147714221#2 -147714221#1 -147714221#0 -147714149#4 -147714149#3 -147714149#2 147714150#2 147714150#3 147714150#4 147714150#5 147714150#6 -8240925#0"/>
  </vehicle>
  <vehicle id="veh_534" type="bg_car" depart="10" departPos="random_free" departLane="best">
    <route edges="-147714131#0 -147714143#0 14504180#1 147764415#1 147764415#2 307580150 508690455 -951326616 -462120960#1 462120961 951326614#0 951326614#1 -147764418#7 -147764418#5 -147764418#3 -147764418#2 -147764418#1 -147764418#0 -791118785#4 -791118785#1 -791118785#0 791118786#3 791118786#4 -160488733#2 -160488733#1 -160488733#0 160488843#1 160488843#2 -29070246#1 -29070246#0 29029280#1 29029280#2"/>
  </vehicle>
  <vehicle id="veh_2804" type="bg_car" depart="10" departPos="random_free" departLane="best">
    <route edges="40798329#0 40798329#1 842324385 40798328#0 24614098 147764415#1 147764415#2 307580150 508690455 -951326616 -462120960#1 -951326613 -951326615#1 -462114167#1 -32902628#1 -147767361#2 -257034872 8386619#0 8386619#1 8386619#2 8386619#3 8386619#4 8386619#5 -159402448 -160087014#4 -160087014#3 -160087014#2 -160087014#1 -160087014#0 -147714207#1 -154331956#4 -154331956#3 132847495#3"/>
  </vehicle>
  <vehicle id="veh_2533" type="bg_car" depart="11" departPos="random_free" departLane="best">
    <route edges="31435425#6 8382605#3 8382605#4 8382605#5 8382609#1 239571339#1 239571339#4 1013049666#1 -147714217#2 -8240925#0 -147714150#5 -147714150#4 -147714150#3 -147714150#2 147714150#2 147714150#3 147714150#4"/>
  </vehicle>
  <vehicle id="veh_2550" type="bg_car" depart="12" departPos="random_free" departLane="best">
    <route edges="160085195#3 -257034871#2 -257034871#1 -257034871#0 -159402448 147714211#0 147714211#1 147714211#2 147714211#3 32948216#0 32948216#1 32948216#3 32948216#4 8386663#1 8386663#2 8386667#0 8386667#1 8386667#2 8386667#3 8386669#0 8386669#1 -31669899#2 -31669899#1 -31669899#0 -8386670#1 -8386670#0 542415804#0 542415804#1 424538847 14459724#0 14459724#1 14459724#2 14459724#3 147714159#0 147714159#1"/>
  </vehicle>
  <vehicle id="veh_879" type="bg_car" depart="13" departPos="random_free" departLane="best">
    <route edges="-8382605#0 508701859#0 -258798208#1 -258798208#0 -160500161#0 160500256#0 -160488732#2 -160488732#1 -160488732#0 160488845#2 160488845#3 160488845#4 -8382541#2 -8382541#1 -8382541#0 549216803#2 549216803#3 -549216806#2 -549216806#1 31435616#0 1473966234#0 1473966234#1 147764381#0 147764378#0 147764378#1 239737805#1"/>
  </vehicle>
  <vehicle id="veh_2616" type="bg_car" depart="14" departPos="random_free" departLane="best">
    <route edges="549216803#4 549216803#1 549216803#2 549216803#3 -549216806#2 -549216806#1 31435616#0 1473966234#0 1473966234#1 147764381#0 147764418#0 147764418#1 147764418#2 147764418#3 147764418#5 147764418#7 462120959#0 462120959#2 951326613 462120960#0 14461009#0 14461009#1 14461009#2 881709473#1 881709473#2 147714143#0 147714143#1 147714143#2 147714143#3 147714143#4 32902687#1 627579510 627579509 147767349#1 147767349#2 147714246#0 147714246#1 32947771#0 32947771#1 147714167#1 692636314#0 692636314#1 -147759763#9 -147759763#8 -147759763#5 -147759763#4 -147759763#3 -147759763#2 -147759763#1 -147759763#0 -409616622#2"/>
  </vehicle>
  <vehicle id="veh_1976" type="bg_car" depart="15" departPos="random_free" departLane="best">
    <route edges="32902356#0 32902356#1 490979816#0 150213180#3 -248860500#0 29070246#0 29070246#1 160488843#3 160488843#4 160488733#0 160488733#1 160488733#2 791118786#1 791118786#2 791118785#0 791118785#1 791118785#4 147764418#0 147764418#1 147764418#2 147764418#3 147764418#5 147764418#7 462120959#0 462120959#2 951326613 462120960#0 951326616 24614095 -147764415#2 -147764415#1 -24614098 -40798328#0 -842324385 842324384#0 842324384#1 842324384#2 842324382 842329003#0 842329003#1 -842329002 -842329004#1 -842329004#0 842343890 842343889 -40798330#2 -40798330#0 31669960#0 31669960#1 147714156#1 147764409#1"/>
  </vehicle>
  <vehicle id="veh_2993" type="bg_car" depart="16" departPos="random_free" departLane="best">
    <route edges="-147764396 147764394 -147764394"/>
  </vehicle>
  <vehicle id="veh_1222" type="bg_car" depart="17" departPos="random_free" departLane="best">
    <route edges="160488738#0 8382605#3 8382605#4 8382605#5 8382609#1 -248860500#0 29070246#0 29070246#1 160488843#3 160488843#4 160488733#0 160488733#1 160488733#2 791118786#1 791118786#2 791118785#0 791118785#1 791118785#4 -147764381#1 8382567#1 8382567#2 329279829#0 329279829#1 -161181219"/>
  </vehicle>
  <vehicle id="veh_1267" type="bg_car" depart="17" departPos="random_free" departLane="best">
    <route edges="-159985929#1 -159985929#0 1346698509#1 1346698510#0 -239737805#6 -239737805#5 -239737805#1 -147764343#2 147764418#5 147764418#7 462120959#0 462120959#2 951326613 462120960#0 14461009#0 14461009#1 14461009#2 881709473#1 881709473#2 147714143#0 147714143#1 147714143#2 147714143#3 147714143#4 32902687#1 627579510 627579509 147767349#1 147767349#2 147714246#0 147714246#1 32947771#0 32947771#1"/>
  </vehicle>
  <vehicle id="veh_3219" type="bg_car" depart="18" departPos="random_free" departLane="best">
    <route edges="542100334#1 542100334#3 542100334#5 542100334#6 -36250381 -542100334#5 -542100334#3 -542100334#1 -542100334#0 1465611468#0 1465611468#1 -155433193#3 -155433193#2 -155433193#1 -155433193#0 147764368#0 147764368#1 147764368#2 279260256#0 279260256#1 40798329#0 40798329#1 842324385 40798328#0 24614098 147764415#1 147764415#2 307580150 508690455 -951326616 -462120960#1 462120961 951326614#0 951326614#1 -147764418#7 -147764418#5 -147764418#3 -147764418#2 -147764418#1 -147764418#0 -791118785#4 -791118785#1 -791118785#0 791118786#3 791118786#4 -160488733#2 -160488733#1 -160488733#0 160488843#1 160488843#2 -29070246#1 -29070246#0 248860500#0 -150213180#4 675816101#10 132847490#0 132847490#1 132847490#2 132847490#6"/>
  </vehicle>
  <vehicle id="veh_3262" type="bg_car" depart="20" departPos="random_free" departLane="best">
    <route edges="-147714141#4 -147714141#3 -147714141#2 147714141#1 147714141#3 147714141#4 160085195#3 160085195#4 -159985929#2 -159985929#1 -159985929#0 1346698509#1 1346698510#0 -239737805#6 -239737805#5 -239737805#1 -147764343#2 147764343#2"/>
  </vehicle>
  <vehicle id="veh_2787" type="bg_car" depart="22" departPos="random_free" departLane="best">
    <route edges="-147764344#4 147764344#4 147764344#6 147764344#7 791118786#4 -160488733#2 -160488733#1 -160488733#0 160488843#1 160488728#0 160488728#1 -151820016#2 151820016#0"/>
  </vehicle>
  <vehicle id="veh_78" type="bg_car" depart="24" departPos="random_free" departLane="best">
    <route edges="-160192234#2 160192234#2 160192234#5 715149750#1 1346698509#0 1346698509#1 159985930#0 159985930#1 159985930#2 8386619#0 8386619#1 8386619#2 8386619#3 8386619#4 8386619#5 -159402448 -147714162#14 -147714162#13 -147714162#12 -147714162#11 -147714162#9 -147714162#8 -147714162#7 -147714162#6 -147714162#5 -147714162#4 -147714162#3 -147714162#2 -147714162#1 147714221#0 147714221#1 147714221#2 147714221#3 147714221#4 147714220#1 147714220#2 -147714220#2 -147714220#1 -147714220#0"/>
  </vehicle>
  <vehicle id="veh_2803" type="bg_car" depart="24" departPos="random_free" departLane="best">
    <route edges="-32948168#1 32948168#1 32948168#2 32948168#3 32948168#6 32948168#7 147714204#1 147714194#0 257034872 32948216#0 32948216#1 32948216#3 32948216#4 8386663#1 8386663#2 8386667#0 8386667#1 159402591 150278432#2 150278432#3"/>
  </vehicle>
  <vehicle id="veh_3093" type="bg_car" depart="24" departPos="random_free" departLane="best">
    <route edges="147714138#0 147714138#1 231063264#2 231063264#3 147759776#12 147759776#13 147759776#14 147759776#15 147759776#16 147759776#17 627579510 627579509 147767349#1 147767349#2 1275546927#1 147714157 1307691928#0 323330483#0 323330483#1 323330483#2"/>
  </vehicle>
  <vehicle id="veh_331" type="bg_car" depart="27" departPos="random_free" departLane="best">
    <route edges="-32429869#0 490979817#0 490979817#1 490979816#0 150213180#3 -8382609#1 -8382609#0 -8382605#4 -8382605#3 -8382605#2 -8382605#1 -8382605#0 508701859#0 -793866220 507617329#0 507617329#1 4309937#1 148808963#1 148808963#2 -133373268 133373269#1 594566876#1 594566876#2 594566876#3 594566874#0 594566874#1 -594566874#1 -594566874#0"/>
  </vehicle>
  <vehicle id="veh_1371" type="bg_car" depart="27" departPos="random_free" departLane="best">
    <route edges="-147764415#2 -147764415#1 147764415#1 147764415#2 307580150 508690455 -951326616 -462120960#1 -951326613 -951326615#1 -462114167#1 24614100#1 24614100#2 239737805#1 239737805#5 239737805#6 1346698510#1 -715149750#1 -715149750#0 -160192234#2 8382600#1 8382621#0 8382621#1 160282530#2 160282530#3 160282530#4"/>
  </vehicle>
  <vehicle id="veh_1455" type="bg_car" depart="27" departPos="random_free" departLane="best">
    <route edges="690893943#0 4306846#2 4306846#6 4306846#7 4306846#9 507617317#0 507617317#1 -243570310#1 -243570310#0 40828699 507617321#0 507617321#1 507617320 4309937#1 -160500157#1 -160500157#0 408687064 160500256#0 -160488732#2 -160488732#1 -160488732#0 160488845#2 160488845#3 -160488728#2 -160488728#1 -160488728#0 160488843#2 160488843#3 -160282505#2 -160282505#1 -160282505#0 160282530#3 160282530#4 -160085171#2 -160085171#1 -160085171#0 160085195#2 160085195#3 -257034871#2 -257034871#1 -257034871#0 -159402448 -160087014#4"/>
  </vehicle>
  <vehicle id="veh_1920" type="bg_car" depart="30" departPos="random_free" departLane="best">
    <route edges="-4306846#7 -4306846#6 4306846#6 4306846#7 4306846#9 507617317#0 507617317#1 -243570310#1 -243570310#0 40828699 507617321#0 507617321#1 507617320 4309937#1 -160500157#1 -160500157#0 408687064 160500256#0 -160488732#2 -160488732#1 -160488732#0 160488845#2 160488845#3 160488845#4 -8382541#2 -8382541#1 -8382541#0 549216803#2 549216803#3 -549216806#2 -549216806#1 31435616#0 1473966234#0 1473966234#1 147764381#0 147764418#0 147764418#1 147764418#2 147764418#3 147764418#5 147764418#7 462120959#0 462120959#2 951326613 462120960#0 951326616 24614095 -147764415#2 -147764415#1 -24614098 -40798328#0 -842324385 842324384#0 842324384#1 842324384#2 842324382 842329003#0 842329003#1 -842329002 -842329004#1 -842329004#0 842343890 842343889 -40798330#2 -40798330#0 31669960#0 31669960#1 147714156#1 147714156#5 147714156#6 475163008 147714223#0 147714223#1 147714223#2 524438439#0 -475163002 475163003#0 475163003#1 -692636313#4 -692636313#3 147714178#0 147714178#1 147714178#2 147714178#3"/>
  </vehicle>
  <vehicle id="veh_2554" type="bg_car" depart="34" departPos="random_free" departLane="best">
    <route edges="147714156#5 147714156#6 -147714156#6 -147714156#5 -147714156#2 -31669960#3 -31669960#0 40798330#0 40798330#1 147764423 842329004#0 842329004#1 842329002 424056832#0 424056832#1 279260255 279260254 279260256#0 279260256#1 40798329#0 40798329#1 842324385 40798328#0 24614098 147764415#1 147764415#2 307580150 508690455 -951326616 -462120960#1 -951326613 -951326615#1 -462114167#1 -32902628#1 147714202#1 147714202#2 147714148 147714233#0"/>
  </vehicle>
  <vehicle id="veh_589" type="bg_car" depart="35" departPos="random_free" departLane="best">
    <route edges="31435616#0 1473966234#0 1473966234#1 147764381#0 -791118785#4 -791118785#1 -791118785#0 791118786#3 791118786#4 791118786#1 715149751#0 715149751#1 8382600#1 8382621#0 8382621#1 160282530#2 160282530#3 8382623#0 8382623#1 24614104#0"/>
  </vehicle>
  <vehicle id="veh_2632" type="bg_car" depart="35" departPos="random_free" departLane="best">
    <route edges="-8382567#1 147764381#0 147764418#0 147764418#1 147764418#2 147764418#3 147764418#5 147764418#7 462120959#0 462120959#2 951326613 462120960#0 14461009#0 14461009#1 14461009#2 881709473#1 881709473#2 147714143#0 147714143#1 147714143#2 147714143#3 147714143#4 32902687#1 627579510 627579509 147767349#1 147767349#2 147714246#0 147714246#1 32947771#0 32947771#1 147714167#1 692636314#0 692636314#1 -147759763#9 -147759763#8 -147759763#5 -147759763#4 -147759763#3 -147759763#2 -147759763#1 -147759763#0 -409616622#2 -409616622#1"/>
  </vehicle>
  <vehicle id="veh_3073" type="bg_car" depart="35" departPos="random_free" departLane="best">
    <route edges="-154331956#3 154331956#2 154331956#4 -8240925#0 -147714150#5 -147714150#4 -147714150#3 -147714150#2 147714149#2 147714149#3 147714149#4 147714221#0 147714221#1 147714221#2 147714221#3 147714221#4 147714220#1 147714220#2 147714214 308337920#1 308337921#1 308337921#2 14459724#0 14459724#1 14459724#2 14459724#3 14459724#4 542415805#0 542415805#1 8386670#0 8386670#1 147759776#0 147759776#2 147759776#3 147759776#4 147759776#5 147714193#1 147714193#2"/>
  </vehicle>
  <vehicle id="veh_3199" type="bg_car" depart="36" departPos="random_free" departLane="best">
    <route edges="9636270#0 9636270#4 305586883#0 229441740#2 147714149#2 147714149#3 147714149#4 147714221#0 147714221#1 147714221#2 147714221#3 147714221#4 147714220#1 147714220#2 147714214 308337920#1 308337921#1 308337921#2 14459724#0 14459724#1 14459724#2 14459724#3 147714159#0 147714159#1 -147714159#1 -147714159#0"/>
  </vehicle>
  <vehicle id="veh_2292" type="bg_car" depart="38" departPos="random_free" departLane="best">
    <route edges="137829806#0 40747116 31428753#0 31428753#1 182008773 145573046#0 976007362 84400649#0 84400649#1 84400649#2 31904032 -31903822#4 -31903822#3 -31903822#2 -36250381 -542100334#5 -542100334#3 -542100334#1 -542100334#0 1465611468#0 1465611468#1 -155433193#3 -155433193#2 -155433193#1 -155433193#0 147764368#0 147764368#1 147764368#2 279260256#0 279260256#1 40798329#0 40798329#1 842324385 40798328#0 24614098 147764415#1 147764415#2 307580150 508690455 -951326616 -462120960#1 -951326613 -951326615#1 -462114167#1 -32902628#1 -147767361#2 -257034872 8386619#0 8386619#1 8386619#2 8386619#3 8386619#4 8386619#5 -159402448 -147714162#14 -147714162#13 -147714162#12 -147714162#11 -147714162#9 -147714162#8 -147714162#7"/>
  </vehicle>
  <vehicle id="veh_464" type="bg_car" depart="39" departPos="random_free" departLane="best">
    <route edges="160085171#0 160085171#1 160085171#2 160282530#0 160282506 8382601#0 160192234#5 715149750#1 1346698509#0 1346698509#1 1346698510#0 -239737805#6 -239737805#5 -239737805#1 -147764343#2 147764418#5 147764418#7 462120959#0 462120959#2 951326613 462120960#0 951326616 24614095 307580150 508690455 -951326616"/>
  </vehicle>
  <vehicle id="veh_2893" type="bg_car" depart="39" departPos="random_free" departLane="best">
    <route edges="147714155#1 -147714155#1 -147714155#0 -231063264#6 147759776#12 147759776#13 147759776#14 147759776#15 147759776#16 147759776#17 -32902687#1 -716676855 -147714143#3 -147714143#2 -147714143#1 -147714143#0 14504180#1 -24614098 -40798328#0 -842324385 842324384#0 842324384#1 842324384#2 842324382 842329003#0 842329003#1 -842329002 -842329004#1 -842329004#0 842343890 842343889 -40798330#2 -40798330#0"/>
  </vehicle>
  <vehicle id="veh_3145" type="bg_car" depart="39" departPos="random_free" departLane="best">
    <route edges="624203044#0 -624203044#1 40747116 31428753#0 31428753#1 182008773 145573046#0 976007362 84400649#0 84400649#1 84400649#2 31904032 -31903822#4 31903122#1 31903122#2 946428996#1 946428995 35964894#0 35964894#1 35964874 35964877 220267701#1 31669960#0 31669960#1 147714156#1 147714156#5 147714156#6 475163008 147714223#0 147714223#1 524436982#0 524436982#1"/>
  </vehicle>
  <vehicle id="veh_1537" type="bg_car" depart="40" departPos="random_free" departLane="best">
    <route edges="147714141#3 147714141#4 160085195#3 160085195#4 -159985929#2 -159985929#1 -159985929#0 1346698509#1 1346698510#0 -239737805#6 -239737805#5 -239737805#1 -147764343#2 147764418#5 147764418#7 462120959#0 462120959#2 951326613 462120960#0 951326616 24614095 -147764415#2 -147764415#1 -24614098 -40798328#0 -842324385 842324384#0 842324384#1 842324384#2 842324382 842329003#0 842329003#1 -842329002 -842329004#1 -842329004#0 842343890 842343889 -40798330#2 -40798330#0 31669960#0 31669960#1 147714156#1 147714156#5 147714156#6 475163008 147714223#0 147714223#1"/>
  </vehicle>
  <vehicle id="veh_1304" type="bg_car" depart="41" departPos="random_free" departLane="best">
    <route edges="147759780#1 32947777#0 482185743#0 482185743#1 147764409#5 141426860#2 141426860#3 -147767349#2 -147767349#1 -147767349#0 -627579510 -32902687#1 -716676855 -147714143#3 -147714143#2 -147714143#1 -147714143#0 14504180#1 147764415#1 147764415#2 307580150 508690455 -951326616 -462120960#1 462120961 951326614#0 951326614#1 -147764418#7 -147764418#5 -147764418#3 -147764418#2 -147764418#1 -147764418#0 -791118785#4 -791118785#1 -791118785#0 791118786#3 791118786#4 -160488733#2 -160488733#1 -160488733#0 160488843#1 160488843#2 -29070246#1 -29070246#0 248860500#0 -150213180#4 675816101#10 132847490#0 132847490#1 132847490#2 132847490#6"/>
  </vehicle>
  <vehicle id="veh_3483" type="bg_car" depart="41" departPos="random_free" departLane="best">
    <route edges="8386619#4 8386619#5 -159402448 147714211#0 147714211#1 147714211#2 147714211#3 147767361#2 32902628#1 462114167#1 951326615#0 951326613 462120960#0 951326616 24614095 -147764415#2 -147764415#1 -24614098 -40798328#0 -842324385 842324384#0 842324384#1 842324384#2 842324382 842329003#0 842329003#1 -842329002 -842329004#1 -842329004#0 842343890 842343889 -40798330#2 -40798330#0 31669960#0 31669960#1 147714156#1 147714156#5 147714156#6 475163008 147714223#0 147714223#1 147714223#2 524438437 307580176#0 307580176#1"/>
  </vehicle>
  <vehicle id="veh_1568" type="bg_car" depart="42" departPos="random_free" departLane="best">
    <route edges="147764423 842329004#0 842329004#1 842329002 424056832#0 424056832#1 279260255 279260254 279260256#0 279260256#1 40798329#0 40798329#1 842324385 40798328#0 24614098 147764415#1 147764415#2 307580150 508690455 -951326616 -462120960#1 462120961 951326614#0 951326614#1 -147764418#7 -147764418#5 -147764418#3 -147764418#2 -147764418#1 -147764418#0 -147764381#1 -1473966234#1 -1473966234#0 -508690456#1 437714009#1 549216806#1 549216806#2"/>
  </vehicle>
  <vehicle id="veh_1682" type="bg_car" depart="43" departPos="random_free" departLane="best">
    <route edges="594566875#1 4309690#0 -4306850#3 -4306850#2 -4306850#1 -4306850#0 258798211 832629330#0 832629330#1 832629330#2 8382518#1 8382518#2 852990529 437714009#1 32948168#1 -32948168#1"/>
  </vehicle>
  <vehicle id="veh_1182" type="bg_car" depart="44" departPos="random_free" departLane="best">
    <route edges="-147759800#0 409616622#2 147759763#0 147759763#1 147759763#2 147759763#3 147759763#4 147759763#5 147759763#8 147759763#9 318862223 692636313#0 692636313#1 692636313#2 692636313#3 692636313#4 475163010#0 475163010#1 475163010#2 147714144#2 475163002 524438438#1 307580176#0 307580176#1 307580176#2 508156587 147714223#0 147714223#1 147714223#2 524438437"/>
  </vehicle>
  <vehicle id="veh_1842" type="bg_car" depart="44" departPos="random_free" departLane="best">
    <route edges="-4306850#5 -4306850#4 4306850#4 4306850#5 258798209 507818808 133606372#0 -8139836#3 -8139836#2 -8139836#1 -8139836#0 549216803#1 549216803#2 147764344#0 147764344#1 147764344#4 147764344#6 147764344#7 791118786#4 791118786#1 715149751#0 715149751#1 160192234#2 160192234#5 715149750#1 1346698509#0 159985929#0 159985929#1 159985929#2 160085195#1 160085195#2 -147714141#4 -147714141#3 -147714141#2 1013049666#1 -147714217#2 -8240925#0 -147714150#5 -62016961#1 132847495#4"/>
  </vehicle>
  <vehicle id="veh_2631" type="bg_car" depart="45" departPos="random_free" departLane="best">
    <route edges="-462120960#1 462120961 951326614#0 951326614#1 -147764418#7 -147764418#5 -147764418#3 -147764418#2 -147764418#1 -147764418#0 -147764381#1 -1473966234#1 -1473966234#0 -508690456#1 -852990529 -8382518#2 -8382518#1 -8382518#0 -832629330#1 -832629330#0 307580144#0 307580144#1 8139692#0 8139692#1 8139692#2 1095324879 832629329 4306859#0 4306859#1 -4309946#2"/>
  </vehicle>
  <vehicle id="veh_457" type="bg_car" depart="46" departPos="random_free" departLane="best">
    <route edges="160500161#1 258798208#1 -258798208#1 -258798208#0 -160500161#0 160500256#0 -160488732#2 -160488732#1 -160488732#0 160488845#2 160488845#3 160488845#4 -8382541#2 -8382541#1 -8382541#0 549216803#2 549216803#3 -549216806#2 -549216806#1 31435616#0 1473966234#0 1473966234#1 147764381#0 147764418#0 147764418#1 147764418#2 147764418#3 147764418#5 147764418#7 462120959#0 462120959#2 951326613 462120960#0 951326616 24614095 -147764415#2 -147764415#1 -24614098 -40798328#0 -842324385 842324384#0 842324384#1 842324384#2 842324382 413389238 279260255 147764366#0 147764366#1 147764366#2 155433193#0 155433193#1 155433193#2 155433193#3 1465611466 542100334#0 542100334#1 542100334#3 542100334#5 542100334#6 578539044 31903570#0 31903570#1 -31903570#1 -31903570#0"/>
  </vehicle>
  <vehicle id="veh_1997" type="bg_car" depart="46" departPos="random_free" departLane="best">
    <route edges="-832629330#1 -832629330#0 307580144#0 307580144#1 508690457 4306854 258798211 832629330#0 832629330#1 832629330#2 8382518#1 8382518#2 852990529 437714009#1 31435616#0 1473966234#0 1473966234#1 147764381#0 147764418#0 147764418#1 147764418#2 147764418#3 147764418#5 147764418#7 462120959#0 462120959#2 951326613 462120960#0 951326616 24614095 -147764415#2 -147764415#1 -24614098 26296010#1 26296010#2 1013032560 26296007#1 26296007#2 1307692687#0 323330483#0 323330483#1 323330483#2 147764403 781353826 32902716#1 32902716#2"/>
  </vehicle>
  <vehicle id="veh_1077" type="bg_car" depart="47" departPos="random_free" departLane="best">
    <route edges="-973960064 -9636270#3 -973871839 -31669734#3 -973871841 973871841 31669734#0 973871839 9636270#0 9636270#4 305586883#0 229441740#2 147714149#2 147714149#3 147714149#4 147714162#1 147714162#2 147714162#3 147714162#4 147714162#5 147714162#6 147714162#7 147714162#8 147714162#9 147714162#11 147714162#12 147714162#13 147714162#14 147714211#0 147714211#1 147714211#2 147714211#3 -257034872 -159985930#2 -159985930#1 -159985930#0 1346698510#0 1346698510#1 -715149750#1 -715149750#0 160192234#5"/>
  </vehicle>
  <vehicle id="veh_3031" type="bg_car" depart="47" departPos="random_free" departLane="best">
    <route edges="-160488732#1 -160488732#0 160488845#2 160488845#3 160488845#4 -8382541#2 -8382541#1 -8382541#0 549216803#2 147764344#0 147764344#1 147764344#4 147764344#6 147764344#7 791118786#4 791118786#1 715149751#0 715149751#1 160192234#2 160192234#5 715149750#1 1346698509#0 1346698509#1 159985930#0 159985930#1 159985930#2 257034872 147767361#2 32902628#1"/>
  </vehicle>
  <vehicle id="veh_2931" type="bg_car" depart="48" departPos="random_free" departLane="best">
    <route edges="258798209 507818808 133606372#0 -8139836#3 -8139836#2 -8139836#1 -8139836#0 549216803#1 549216803#2 147764344#0 147764344#1 147764344#4 147764344#6 147764344#7 791118786#4 791118786#1 715149751#0 715149751#1 160192234#2 160192234#5 715149750#1 1346698509#0 1346698509#1 159985930#0 159985930#1 159985930#2 257034872 147767361#2 -147767361#2"/>
  </vehicle>
  <vehicle id="veh_889" type="bg_car" depart="49" departPos="random_free" departLane="best">
    <route edges="-715149750#1 -715149750#0 160192234#5 715149750#1 1346698509#0 1346698509#1 159985930#0 159985930#1 159985930#2 257034872 32948216#0 32948216#1 32948216#3 32948216#4 8386663#1 8386663#2 8386667#0 8386667#1 8386667#2 8386667#3 8386669#0 8386669#1 -31669899#2 -31669899#1 -31669899#0 147759776#0 147759776#2 147759776#3 147759776#4 147759776#5 147759776#9 -231063264#3 -231063264#2 -231063264#1 -1005699289#3 -1005699289#0 -147714154#0 692636314#0 692636314#1 318862223 692636313#0 692636313#1 692636313#2 147714178#0 147714178#1"/>
  </vehicle>
  <vehicle id="veh_185" type="bg_car" depart="50" departPos="random_free" departLane="best">
    <route edges="-8382575#7 -8382575#6 -8382575#5 8382575#5 8382575#6 8382575#7 508690455 24614095 -147764415#2 -147764415#1 -14504180#1 147714143#0 147714143#1 147714143#2 147714143#3 147714143#4 32902687#1 -147759776#17 -147759776#16"/>
  </vehicle>
  <vehicle id="veh_593" type="bg_car" depart="51" departPos="random_free" departLane="best">
    <route edges="159985929#2 160085195#1 160085195#2 160085195#3 160085195#4 -159985929#2 -159985929#1 -159985929#0 1346698509#1 1346698510#0 1346698510#1 -715149750#1 -715149750#0 -160192234#2 -160192234#0 -715149751#0 791118786#2 791118786#3 -147764344#7 -147764344#6 -147764344#4 -147764344#1 -147764344#0 549216803#3 549216803#4 8139836#0 8139836#1 8382511 -8382518#0 -832629330#1 -832629330#0 307580144#0 307580144#1 8139692#0 8139692#1 8139692#2 1095324879 832629329 -832629329"/>
  </vehicle>
  <vehicle id="veh_686" type="bg_car" depart="52" departPos="random_free" departLane="best">
    <route edges="-257034871#0 -159402448 147714211#0 147714211#1 147714211#2 147714211#3 32948216#0 32948216#1 32948216#3 32948216#4 8386663#1 8386663#2 8386667#0 8386667#1 8386667#2 8386667#3 8386669#0 8386669#1 -31669899#2 -31669899#1 -31669899#0 147759776#0 147759776#2 147759776#3 147759776#4 147759776#5 147714193#1"/>
  </vehicle>
  <vehicle id="veh_3327" type="bg_car" depart="52" departPos="random_free" departLane="best">