<?xml version="1.0" encoding="UTF-8"?>

<!-- generated on 2026-04-12 23:03:46.025356 by randomTrips.py UNKNOWN
<configuration>
    <net-file value="network.net.xml"/>
    <route-file value="routes.rou.xml"/>
    <validate value="True"/>
    <end value="1000.0"/>
</configuration>
-->

<!-- generated on 2026-04-12 23:03:45 by Eclipse SUMO duarouter Version 1.18.0
<configuration xmlns:xsi="http://www.w3.org/2001/XMLSchema-instance" xsi:noNamespaceSchemaLocation="http://sumo.dlr.de/xsd/duarouterConfiguration.xsd">

    <input>
        <net-file value="network.net.xml"/>
        <route-files value="trips.trips.xml"/>
    </input>

    <output>
        <output-file value="routes.rou.xml"/>
        <alternatives-output value="NUL"/>
    </output>

    <time>
        <begin value="0"/>
        <end value="1000.0"/>
    </time>

    <report>
        <no-warnings value="true"/>
        <ignore-errors value="true"/>
        <no-step-log value="true"/>
    </report>

</configuration>
-->

<routes xmlns:xsi="http://www.w3.org/2001/XMLSchema-instance" xsi:noNamespaceSchemaLocation="http://sumo.dlr.de/xsd/routes_file.xsd">
    <vehicle id="0" depart="0.00">
        <route edges="239737805#6 1346698510#1 1346698509#0 159985929#0 159985929#1 159985929#2 160085195#1 160085195#2 -147714141#4 -147714141#3 -147714141#2"/>
    </vehicle>
    <vehicle id="1" depart="1.00">
        <route edges="-482185743#0 482185743#0 482185743#1 147764409#5 141426860#2 141426860#3 -147767349#2 -147767349#1 -147767349#0 -627579510 -32902687#1 -716676855 -147714143#3 -147714143#2 -147714143#1 -147714143#0 14504180#1 147764415#1 147764415#2 307580150 508690455 -951326616 -462120960#1 -951326613 -951326615#1 -462114167#1 24614100#1 24614100#2 239737805#1 -32948168#7"/>
    </vehicle>
    <vehicle id="2" depart="2.00">
        <route edges="32948216#0 32948216#1 32948216#3 32948216#4 -32948216#4 -32948216#3 -32948216#1 -32948216#0 -257034872 8386619#0 8386619#1 8386619#2 8386619#3 8386619#4 8386619#5 -159402448 -160087014#4 -160087014#3 -160087014#2 -160087014#1 -160087014#0 -147714207#1 -154331956#4 -154331956#3 675816101#2 675816101#3 675816101#4 675816101#10 31435425#2 31435425#3 31435425#4 31435425#5 31435425#6"/>
    </vehicle>
    <vehicle id="3" depart="3.00">
        <route edges="643889112 34497368#1 8139863 -133606375#1 -133606375#0 507818808 133606372#0 -8139836#3 -8139836#2 -8139836#1 -8139836#0 549216803#1 549216803#2 147764344#0 147764344#1 147764344#4 147764344#6 147764344#7 791118786#4 791118786#1 715149751#0 715149751#1 160192234#2 160192234#5 715149750#1 1346698509#0 1346698509#1 159985930#0 159985930#1 159985930#2 257034872 32948216#0 32948216#1 32948216#3 32948216#4 8386663#1 8386663#2 8386667#0 8386667#1 8386667#2 8386667#3 8386669#0 8386669#1 -31669899#2 -31669899#1 -31669899#0 147759776#0 147759776#2 147759776#3 147759776#4 147759776#5 -147759776#5 -147759776#4"/>
    </vehicle>
    <vehicle id="4" depart="4.00">
        <route edges="147714148 -147714148 -147714202#2 -147714202#1 32902628#1 462114167#1 951326615#0 951326613 462120960#0 951326616 24614095 -147764415#2 -147764415#1 -14504180#1 147714143#0 147714143#1 147714143#2 147714143#3 147714143#4 -716676855 -147714143#3"/>
    </vehicle>
    <vehicle id="5" depart="5.00">
        <route edges="-32902720#1 32902720#1 32902720#2 220267701#1 147764361#0 147764361#1 147764361#3 147764403 1307691494#0 1307691494#1 141426860#0 141426860#1 141426860#2 141426860#3 147714246#0 147714246#1 32947771#0 32947771#1 147714167#1 692636314#0 -147759811#1 -147759811#0 147759787#1"/>
    </vehicle>
    <vehicle id="6" depart="6.00">
        <route edges="-147714143#0 14504180#1 -24614098 -40798328#0 -842324385 842324384#0 842324384#1 842324384#2 842324382 413389238 279260255 147764366#0 147764366#1 147764366#2 155433192#1 -31903374#5 -31903374#4 -31903374#3"/>
    </vehicle>
    <vehicle id="7" depart="7.00">
        <route edges="24614104#2 62017783#13 62017783#14 62017783#15 154331892#2 147714141#1 147714141#3 147714141#4 160085195#3 160085195#4 -159985929#2 -159985929#1 -159985929#0 1346698509#1 1346698510#0 -239737805#6 -239737805#5 -239737805#1 -147764343#2 147764418#5 147764418#7"/>
    </vehicle>
    <vehicle id="9" depart="9.00">
        <route edges="4309938#2 34497368#0 34497368#1 8139863 243570314#0 243570314#1 594566876#2 594566876#3 594566876#4 -133373269#1 -133373269#0"/>
    </vehicle>
    <vehicle id="10" depart="10.00">
        <route edges="4309691#0 4309691#3 4309691#4 -594566875#2 4309690#0 -4306850#3 -4306850#2 -4306850#1 -4306850#0 258798211 832629330#0 832629330#1 832629330#2 8382518#1 8382518#2 852990529 508690456#1 1473966234#0 1473966234#1 147764381#0 147764418#0 147764418#1 147764418#2 147764418#3 147764418#5 147764418#7 462120959#0 462120959#2 951326613 462120960#0 951326616 24614095 -147764415#2 -147764415#1 -24614098 14476271#2 789987873 1465611466 542100334#0 542100334#1 542100334#3 542100334#5 542100334#6 578539044 31903570#0 31903570#1"/>
    </vehicle>
    <vehicle id="12" depart="12.00">
        <route edges="8382623#0 8382623#1 -8382623#1 -8382623#0 160282530#4 160282530#0 160282506 8382601#0 160192234#5 715149750#1 1346698509#0 1346698509#1 1346698510#0 -239737805#6 -239737805#5 -239737805#1 -147764343#2 147764418#5 147764418#7 462120959#0 462120959#2 951326613 462120960#0 951326616 24614095 -147764415#2 -147764415#1 -24614098 -40798328#0 -842324385 842324384#0 842324384#1 842324384#2 842324382 842329003#0 842329003#1 -842329002 -842329004#1 -842329004#0"/>
    </vehicle>
    <vehicle id="13" depart="13.00">
        <route edges="-147759784#0 -147714159#4 -147714159#3 -147714159#1 -147714159#0 14459724#4 542415805#0 542415805#1 8386670#0 8386670#1 31669899#0 31669899#1 31669899#2 31669899#3 -8386669#0 150278432#0 150278432#1 150278432#2 150278432#3 -8386663#2 -8386663#1 -32948216#4 -32948216#3 -32948216#1 -32948216#0 -257034872 -159985930#2 -159985930#1 -159985930#0 1346698510#0 1346698510#1 -715149750#1 -715149750#0 -160192234#2 -160192234#0 -715149751#0 791118786#2 791118786#3 -147764344#7 -147764344#6 -147764344#4 -147764344#1 -147764344#0"/>
    </vehicle>
    <vehicle id="14" depart="14.00">
        <route edges="507617321#0 507617321#1 507617320 4309937#1 -160500157#1 -160500157#0 408687064 160500256#0 -160488732#2 -160488732#1 -160488732#0 160488845#2 160488738#0"/>
    </vehicle>
    <vehicle id="15" depart="15.00">
        <route edges="4309691#4 -594566875#2 4309690#0 -4306850#3 -4306850#2 -4306850#1 -4306850#0 258798211 832629330#0 832629330#1 832629330#2 8382518#1 8382518#2 852990529 508690456#1 1473966234#0 1473966234#1 8382567#1 8382567#2 329279829#0"/>
    </vehicle>
    <vehicle id="16" depart="16.00">
        <route edges="147764403 781353826 35964818#1 -31669960#3 -31669960#0 40798330#0 40798330#1 147764423 842329004#0 842329004#1 842329002 424056832#0 424056832#1 279260255 279260254 279260256#0 279260256#1 842324381 842324382 842329003#0"/>
    </vehicle>
    <vehicle id="17" depart="17.00">
        <route edges="133606374#3 258798210 408687064 160500256#0 -160488732#2 -160488732#1 -160488732#0 160488845#2 160488845#3 -160488728#2 -160488728#1 -160488728#0 160488843#2 160488843#3 -160282505#2 -160282505#1 -160282505#0 160282530#3 160282530#4 160282530#0 160282506 8382601#0 160192234#5 715149750#1 1346698509#0 1346698509#1 159985930#0 159985930#1 159985930#2 257034872 32948216#0 32948216#1 32948216#3 32948216#4 8386663#1 8386663#2 8386667#0 8386667#1 8386667#2 8386667#3 150278432#0"/>
    </vehicle>
    <vehicle id="19" depart="19.00">
        <route edges="524438439#0 -475163002 475163003#0 475163003#1 -692636313#4 -692636313#3 -692636313#2 -692636313#1 -692636313#0 147714167#0 147714167#1 147714154#0 147714154#1 1005699289#2 231063264#1 231063264#2 231063264#3 -147759776#9 -147759776#5 -147759776#4 -147759776#3 -147759776#2 -147759776#0 31669899#0 31669899#1 159904669#2 159904669#3 159904669#4 159904669#5 159904669#6 159904669#7"/>
    </vehicle>
    <vehicle id="20" depart="20.00">
        <route edges="322756224#3 322756224#4 35964877 220267701#1 40798330#0 40798330#1 147764423 842329004#0 842329004#1 842329002 424056832#0 424056832#1 279260255 279260254 279260256#0 279260256#1 40798329#0 40798329#1 842324385 40798328#0 24614098 147764415#1 147764415#2 307580150 508690455 -951326616 -462120960#1 -951326613 -951326615#1 -462114167#1 -32902628#1 -147767361#2 -257034872 8386619#0 8386619#1 8386619#2 8386619#3 8386619#4 8386619#5 -159402448 -147714162#14 -147714162#13 -147714162#12"/>
    </vehicle>
    <vehicle id="21" depart="21.00">
        <route edges="-32948168#6 791118785#4 147764418#0 147764418#1 147764418#2 147764418#3 147764418#5 147764418#7 462120959#0 462120959#2 951326613 462120960#0 951326616 24614095 -147764415#2 -147764415#1 -24614098 -40798328#0 -842324385 842324384#0 842324384#1 842324384#2 842324382 842329003#0 842329003#1 -842329002 -842329004#1 -842329004#0 842343890 842343889 -40798330#2 -40798330#0 31669960#0 31669960#1 147714156#1 147714156#5 147714156#6 475163008 147714223#0 147714223#1 524436982#0 524436982#1 524436982#2 -692636313#4 -692636313#3 -692636313#2 -692636313#1 -692636313#0"/>
    </vehicle>
    <vehicle id="22" depart="22.00">
        <route edges="-147759763#5 -147759763#4 -147759763#3 -147759763#2 -147759763#1 -147759763#0 -409616622#2 409616622#2 147759763#0 147759763#1 147759763#2 147759763#3 147759763#4 147759763#5 147759763#8 147759763#9 318862223 147714167#0 147714167#1 147714154#0 147714154#1 1005699289#2 147714200#1 147714200#2 147714200#3 147759776#15 147759776#16 147759776#17 -32902687#1 -716676855 -147714143#3 -147714143#2 -147714143#1 -147714143#0 14504180#1 147764415#1 147764415#2 307580150 508690455 -951326616 -462120960#1 462120961 951326614#0 951326614#1 -147764418#7 -147764418#5 -147764418#3 -147764418#2 -147764418#1 -147764418#0 -147764381#1 -1473966234#1 -1473966234#0 -508690456#1 -852990529 -8382518#2 -8382518#1 -8382518#0 -832629330#1 -832629330#0 307580144#0 307580144#1 8139692#0 8139692#1 8139692#2 1095324879 832629329 4306859#0 4306859#1 291878344#0 291878344#1 1021287158 -40784644#1 -40784672#7 -40784672#6 -40784672#5 -40784672#4 -40784672#1 -40784642#9 -40784642#5 -40784642#2"/>
    </vehicle>
    <vehicle id="23" depart="23.00">
        <route edges="-147764344#0 549216803#3 -549216806#2 -549216806#1 31435616#0 1473966234#0 1473966234#1 147764381#0 147764418#0 147764418#1 147764418#2 147764418#3 147764418#5 147764418#7 462120959#0 462120959#2 951326613 462120960#0 951326616 24614095 -147764415#2 -147764415#1 -24614098 14476271#2 789987873 1465611466 542100334#0 542100334#1 542100334#3 542100334#5 542100334#6 -36250381 -542100334#5 -542100334#3 -542100334#1"/>
    </vehicle>
    <vehicle id="24" depart="24.00">
        <route edges="23598808#0 -23598808#1 976007362 84400649#0 84400649#1 84400649#2 31904032 -31903822#4 -31903822#3 -31903822#2 -36250381 -542100334#5 -542100334#3 -542100334#1 -542100334#0 1465611468#0 1465611468#1 -155433193#3 -155433193#2 -155433193#1 -155433193#0 147764368#0 147764368#1 147764368#2 279260256#0 279260256#1 40798329#0 40798329#1 842324385 40798328#0 24614098 147764415#1 147764415#2 307580150 508690455 -951326616 -462120960#1 462120961 951326614#0 951326614#1 -147764418#7 -147764418#5 -147764418#3 -147764418#2 -147764418#1 -147764418#0 -791118785#4 -791118785#1 -791118785#0 791118786#3 791118786#4 -160488733#2 -160488733#1 -160488733#0 160488843#1 160488843#2 -29070246#1 -29070246#0 248860500#0 -150213180#4 675816101#10 132847490#0 132847490#1 132847490#2 132847490#6"/>
    </vehicle>
    <vehicle id="25" depart="25.00">
        <route edges="1307692687#0 323330483#0 323330483#1 323330483#2 147764403 781353826 35964818#1 -31669960#3 -31669960#0 40798330#0 40798330#1 147764423 842329004#0 842329004#1 842329002 424056832#0 424056832#1 279260255 279260254 279260256#0 279260256#1 40798329#0 40798329#1 842324385 40798328#0 24614098 147764415#1 147764415#2 307580150 508690455 -951326616 -462120960#1 -951326613 -951326615#1 -462114167#1 -32902628#1"/>
    </vehicle>
    <vehicle id="26" depart="26.00">
        <route edges="-4309687 -697956274 -594566874#1 -594566874#0 594566876#4 594566876#1 -243570314#1 -243570314#0 -133606375#1 -133606375#0 507818808 133606372#0 -8139836#3 -8139836#2 8382511 8382518#1 8382518#2 852990529 508690456#1 1473966234#0 1473966234#1 8382567#1 8382567#2"/>
    </vehicle>
    <vehicle id="27" depart="27.00">
        <route edges="24614101#2 162018352#0 162018352#1"/>
    </vehicle>
    <vehicle id="28" depart="28.00">
        <route edges="-23608301#1 23176159#2 -946436362#3 -946436362#2 -946436362#1 -946436362#0 946428996#0 946428996#1 31903374#0 31903374#1 31903374#2 31903374#3 31903374#4 31903374#5 155433191#1 147764368#0 147764368#1 147764368#2 279260256#0 279260256#1 40798329#0 40798329#1 842324385 40798328#0 24614098 147764415#1 147764415#2 307580150 508690455 -951326616 -462120960#1 462120961 951326614#0 951326614#1 -147764418#7 -147764418#5 -147764418#3 -147764418#2 -147764418#1 -147764418#0 -147764381#1 -1473966234#1 -1473966234#0 -329279828#2 329279828#2"/>
    </vehicle>
    <vehicle id="30" depart="30.00">
        <route edges="946436362#3 -946436362#3 -946436362#2 -946436362#1 -946436362#0 946428996#0 946428996#1 31903374#0 31903374#1 31903374#2 31903374#3 31903374#4 31903374#5 155433191#1 147764368#0 147764368#1 147764368#2 279260256#0 279260256#1 40798329#0 40798329#1 842324385 40798328#0 24614098 147764415#1 147764415#2 307580150 508690455 -951326616 -462120960#1 462120961 951326614#0 951326614#1 -147764418#7 -147764418#5 -147764418#3 -147764418#2 -147764418#1 -147764418#0 -147764381#1 -1473966234#1 -1473966234#0 -508690456#1 -852990529 -8382518#2 -8382518#1 -8382511 8139836#2 8139836#3 133606372#1 258798209 133606375#0 133606375#1 -8139863 4309938#1 4309938#2 -133560935 148808963#1 148808963#2 507818805#0 507818805#1 -40828699 243570310#0 243570310#1"/>
    </vehicle>
    <vehicle id="31" depart="31.00">
        <route edges="151820016#2 160488728#2 160488845#4 -8382541#2 -8382541#1 -8382541#0 549216803#2 549216803#3 549216803#4 8139836#0 8139836#1 8382511 -8382518#0 -832629330#1 -832629330#0 307580144#0 307580144#1 8139692#0 8139692#1 8139692#2 1095324879 832629329 4306859#0 4306859#1 291878344#0 291878344#1 1021287158 -40784644#1 -40784672#7 -40784672#6 -40784672#5 -40784672#4 -40784672#1 -40784642#9 -40784642#5 -40784642#2 31672319#0"/>
    </vehicle>
    <vehicle id="32" depart="32.00">
        <route edges="490979817#1 490979816#0 62017783#12 62017783#13 62017783#14 62017783#15 62017783#16 132847495#3 132847495#4 229441740#2 147714149#2 147714149#3 147714149#4 147714221#0 147714221#1 147714221#2 147714221#3 147714221#4 147714220#1 147714220#2 147714214 308337920#1 308337921#1 308337921#2 14459724#0 14459724#1 14459724#2 14459724#3 14459724#4 542415805#0 542415805#1 8386670#0 8386670#1 147759776#0 147759776#2 147759776#3 147759776#4 147759776#5 147759776#9 -231063264#3 -231063264#2 -231063264#1 -1005699289#3 -1005699289#0 -147714154#0 692636314#0 -147759811#1 -147759811#0 147759787#1 409616622#1"/>
    </vehicle>
    <vehicle id="33" depart="33.00">
        <route edges="-32948168#7 -32948168#6 32948168#6 32948168#7 147714204#1 147714194#0 8386619#0 8386619#1 8386619#2 8386619#3 8386619#4 8386619#5 -159402448 -147714162#14 -147714162#13 -147714162#12 -147714162#11 -147714162#9 -147714162#8 -147714162#7 -147714162#6 -147714162#5 -147714162#4 -147714162#3 -147714162#2 -147714162#1 -147714149#4 -147714149#3"/>
    </vehicle>
    <vehicle id="34" depart="34.00">
        <route edges="-832629330#0 307580144#0 307580144#1 508690457 4306854 258798211 832629330#0 832629330#1 832629330#2 8382518#1 8382518#2 852990529 508690456#1 1473966234#0 1473966234#1 147764381#0 147764418#0 147764418#1 147764418#2 147764418#3 147764418#5 147764418#7 462120959#0 462120959#2 951326613 462120960#0 -462120960#1"/>
    </vehicle>
    <vehicle id="35" depart="35.00">
        <route edges="-31903822#3 -31903822#2 -36250381 -542100334#5 -542100334#3 -542100334#1 -542100334#0 1465611468#0 1465611468#1 -155433193#3 -155433193#2 -155433193#1 -155433193#0 147764368#0 147764368#1 147764368#2 279260256#0 279260256#1 40798329#0 40798329#1 842324385 40798328#0 24614098 147764415#1 147764415#2 307580150 -8382575#7 -8382575#6 -8382575#5 -8382575#4 -8382575#2 -8382575#1 -329279829#1 -329279829#0 8382576#1 8382576#2"/>
    </vehicle>
    <vehicle id="36" depart="36.00">
        <route edges="594566874#0 594566874#1 -594566874#1 -594566874#0 594566876#4 594566876#1 -243570314#1 -243570314#0 -133606375#1 -133606375#0 507818808 133606374#0 133606374#1 -38934053#1 -38934053#0 8382536 38934054 -8382541#1"/>
    </vehicle>
    <vehicle id="37" depart="37.00">
        <route edges="26296007#1 26296007#2 1307692687#0 323330483#0 323330483#1 323330483#2 147764403 781353826 35964818#1 -31669960#3 -31669960#0 40798330#0 40798330#1 147764423 842329004#0 842329004#1 842329002 424056832#0 424056832#1 279260255 147764366#0 147764366#1 147764366#2 155433193#0 155433193#1 155433193#2 155433193#3 1465611466"/>
    </vehicle>
    <vehicle id="38" depart="38.00">
        <route edges="81246607#2 8382549#2 8382549#3 329279828#0 329279828#2 1473966234#0 1473966234#1 147764381#0 147764418#0 147764418#1 147764418#2 147764418#3 147764418#5 147764418#7 462120959#0 462120959#2 951326613 462120960#0 951326616 24614095 -147764415#2 -147764415#1 -14504180#1 147714143#0 147714143#1 147714143#2 147714143#3 147714143#4 32902687#1 -147759776#17 -147759776#16 -147759776#15 -147759776#14 -147759776#13 147714151#1 147714200#2"/>
    </vehicle>
    <vehicle id="39" depart="39.00">
        <route edges="-4308723#5 -4308723#4 4308723#4 4308723#5 -243570310#1 -243570310#0 40828699 507617321#0 507617321#1 507618776#0 507618776#1 507618776#2 408687065 508701860#1 8382605#0 8382605#1 8382605#2 8382605#3 8382605#4 8382605#5 8382609#1 -150213180#4 62017783#12 62017783#13 62017783#14 62017783#15 62017783#16 132847495#3 132847495#4 229441740#2 147714149#2 147714149#3 147714149#4 -43055598#1"/>
    </vehicle>
    <vehicle id="40" depart="40.00">
        <route edges="155433193#0 155433193#1 155433193#2 155433193#3 -155433193#3 -155433193#2 -155433193#1 -155433193#0 147764368#0 147764368#1 147764368#2 279260256#0 279260256#1 40798329#0 40798329#1 842324385 40798328#0 24614098 147764415#1 147764415#2 307580150 508690455 -951326616 -462120960#1 462120961 951326614#0 951326614#1 -147764418#7 -147764418#5 -147764418#3 -147764418#2 -147764418#1 -147764418#0 -147764381#1 -1473966234#1 -1473966234#0 -508690456#1 -852990529 -8382518#2 -8382518#1 -8382518#0 -832629330#1 -832629330#0 307580144#0 307580144#1 508690457 4306854 4306850#0 4306850#1 4306850#2 4306850#3 -4309690#0"/>
    </vehicle>
    <vehicle id="41" depart="41.00">
        <route edges="160085171#1 160085171#2 160282530#0 160282506 8382601#0 160192234#5 715149750#1 1346698509#0 1346698509#1 159985930#0 159985930#1 159985930#2 257034872 32948216#0 32948216#1 32948216#3 32948216#4 8386663#1 8386663#2 8386667#0 8386667#1 8386667#2 8386667#3 8386669#0 8386669#1 -31669899#2 -31669899#1 -31669899#0 147759776#0 147759776#2 147759776#3 147759776#4 147759776#5 147759776#9 -231063264#3 -231063264#2 -231063264#1 -1005699289#3 -1005699289#0 -147714154#0 692636314#0 692636314#1 318862223 692636313#0 692636313#1 692636313#2 692636313#3"/>
    </vehicle>
    <vehicle id="42" depart="42.00">
        <route edges="14461009#2 881709473#1 881709473#2 14504180#1 -24614098 26296010#1 26296010#2 1013032560 26296007#1 26296007#2 1307692687#0 323330483#0 323330483#1 323330483#2 147764403 781353826 32902716#1 32902716#2 147764409#4 -482185743#1 -482185743#0 -32947777#0"/>
    </vehicle>
    <vehicle id="43" depart="43.00">
        <route edges="973871839 9636270#0 9636270#4 305586883#0 229441740#2 147714149#2 147714149#3 147714149#4 147714221#0 147714221#1 147714221#2 147714221#3 147714221#4 147714220#1 147714220#2 147714214 308337920#1 308337921#1 308337921#2 14459724#0 14459724#1 14459724#2 14459724#3 14459724#4 542415805#0 542415805#1 8386670#0 8386670#1 147759776#0 147759776#2 147759776#3 147759776#4 147759776#5 147759776#9 -231063264#3 -231063264#2 -231063264#1 -1005699289#3 -1005699289#0 -147714154#0 692636314#0 692636314#1 -147759763#9 -147759763#8 -147759763#5 -147759763#4 -147759763#3 -147759763#2 -147759763#1 -147759763#0 -409616622#2 -409616622#1 -409616622#0 -147759787#0 147759811#1"/>
    </vehicle>
    <vehicle id="44" depart="44.00">
        <route edges="-147759776#5 -147759776#4 -147759776#3 -147759776#2 -147759776#0 31669899#0 31669899#1 31669899#2 31669899#3 -8386669#0 150278432#0 150278432#1 150278432#2 150278432#3 -8386663#2 -8386663#1 -32948216#4 -32948216#3 -32948216#1 -32948216#0 -257034872 8386619#0 8386619#1 8386619#2 8386619#3 8386619#4 8386619#5 -159402448 -147714162#14"/>
    </vehicle>
    <vehicle id="45" depart="45.00">
        <route edges="-147764391#0 147764391#0 -147714162#9 -147714162#8 -147714162#7 -147714162#6 -147714162#5 -147714162#4 -147714162#3 -147714162#2 -147714162#1 147714221#0 147714221#1 147714221#2 147714221#3 147714221#4 147714220#1 147714220#2 147714214 308337920#1 308337921#1 308337921#2 14459724#0 14459724#1 14459724#2 14459724#3 14459724#4 542415805#0 542415805#1 8386670#0 8386670#1 147759776#0 147759776#2 147759776#3 147759776#4 147759776#5 147714193#1 147714193#2 147714193#3 147714193#4 231063264#7"/>
    </vehicle>
    <vehicle id="46" depart="46.00">
        <route edges="4308723#5 -243570310#1 -243570310#0 40828699 507617321#0 507617321#1 507617320 4309937#1 -160500157#1 -160500157#0 408687064 160500256#0 -160488732#2 -160488732#1 -160488732#0 160488845#2 160488845#3 160488845#4 -8382541#2 -8382541#1 -8382541#0 549216803#2 549216803#3 -549216806#2 -549216806#1 31435616#0 1473966234#0 1473966234#1 147764381#0 147764418#0 147764418#1 147764418#2 147764418#3 147764418#5 147764418#7 462120959#0 462120959#2 951326613 462120960#0 951326616 24614095 -147764415#2 -147764415#1 -14504180#1 147714143#0 147714143#1 147714143#2 147714143#3 147714143#4 32902687#1 -147759776#17 -147759776#16 -147759776#15 -147759776#14 -147759776#13 147714151#1"/>
    </vehicle>
    <vehicle id="48" depart="48.00">
        <route edges="9636270#4 305586883#0 45456486#2 45456486#3 675816101#2 675816101#3 675816101#4 150213180#3 -248860500#0 29070246#0 29070246#1 160488843#3 160488843#4 160488733#0 160488733#1 160488733#2 791118786#1 791118786#2 791118785#0 791118785#1 791118785#4 -147764381#1 147764381#0"/>
    </vehicle>
    <vehicle id="49" depart="49.00">
        <route edges="842324384#1 842324384#2 842324382 842329003#0 842329003#1 -842329002 -842329004#1 -842329004#0 842343890 842343889 -40798330#2 -40798330#0 31669960#0 31669960#1 147714156#1 147714156#5 147714156#6 475163008 147714223#0 147714223#1 147714223#2 524438439#0 524438438#1"/>
    </vehicle>
    <vehicle id="50" depart="50.00">
        <route edges="-133606375#0 507818808 133606372#0 -8139836#3 -8139836#2 8382511 8382518#1 8382518#2 852990529 508690456#1 1473966234#0 1473966234#1 147764381#0 147764418#0 147764418#1 147764418#2 147764418#3 147764418#5 147764418#7 462120959#0 462120959#2 951326613 462120960#0 951326616 24614095 -147764415#2 -147764415#1 -24614098 26296010#1 26296010#2 1013032560 26296007#1 26296007#2 1307692687#0 323330483#0 323330483#1 323330483#2 147764403 781353826 32902716#1 32902716#2"/>
    </vehicle>
    <vehicle id="51" depart="51.00">
        <route edges="31669899#3 8386669#1 -31669899#2 -31669899#1 -31669899#0 147759776#0 147759776#2 147759776#3 147759776#4 147759776#5 147759776#9 -231063264#3 -231063264#2 -231063264#1 -1005699289#3 -1005699289#0 -147714154#0 692636314#0 692636314#1 318862223 692636313#0 692636313#1 692636313#2 692636313#3 692636313#4 475163010#0 475163010#1 475163010#2 147714144#2 475163002 524438438#1 307580176#0 307580176#1 307580176#2 475163009 -147714156#6 -147714156#5 147764409#1 147764409#2"/>
    </vehicle>
    <vehicle id="52" depart="52.00">
        <route edges="-4309687 -697956274 -594566874#1 -594566874#0 594566876#4 594566876#1 -243570314#1 -243570314#0 243570314#0"/>
    </vehicle>
    <vehicle id="53" depart="53.00">
        <route edges="-147764396 147764394 -147764394 147764396 -147714202#2 -147714202#1 -147767361#2 -257034872 8386619#0 8386619#1 8386619#2 8386619#3 8386619#4 8386619#5 -159402448 -147714162#14 -147714162#13 -147714162#12 -147714162#11 -147714162#9 -147714162#8 -147714162#7 -147714162#6 -147714162#5 -147714162#4 -147714162#3 -147714162#2 -147714162#1 147714162#1"/>
    </vehicle>
    <vehicle id="55" depart="55.00">
        <route edges="578539044 31903570#0 31903570#1 -31903570#1 -31903570#0 -578539044 -36250381 -542100334#5 -542100334#3 -542100334#1 -542100334#0 1465611468#0 1465611468#1 -155433193#3 -155433193#2 -155433193#1 -155433193#0 147764368#0 147764368#1 147764368#2 279260256#0 279260256#1 40798329#0 40798329#1 842324385 40798328#0 24614098 147764415#1 147764415#2 307580150 508690455 -951326616 -462120960#1 462120961 951326614#0 951326614#1 -147764418#7 -147764418#5 -147764418#3 -147764418#2 -147764418#1 -147764418#0 -147764381#1 -1473966234#1 -1473966234#0 -508690456#1 -852990529 -8382518#2 -8382518#1 -8382518#0 -832629330#1 -832629330#0 307580144#0 307580144#1 508690457 4306854 4306850#0 4306850#1 4306850#2 4306850#3 -4309690#0"/>
    </vehicle>
    <vehicle id="56" depart="56.00">
        <route edges="147759776#17 -32902687#1 -716676855 -147714143#3 -147714143#2 -147714143#1 -147714143#0 14504180#1 147764415#1 147764415#2 307580150 508690455 -951326616 -462120960#1 -951326613 -951326615#1 -462114167#1 24614100#1 24614100#2 239737805#1 239737805#5 239737805#6 1346698510#1 1346698509#0 159985929#0 159985929#1 159985929#2 160085195#1 160085195#2 160085195#3 -257034871#2 -257034871#1"/>
    </vehicle>
    <vehicle id="57" depart="57.00">
        <route edges="81246607#0 81246607#1 81246607#2 8382549#2 8382549#3 329279828#0 329279828#2 -508690456#1 437714009#1 549216806#1"/>
    </vehicle>
    <vehicle id="58" depart="58.00">
        <route edges="-697956274 -594566874#1 -594566874#0 594566876#4 -133373269#1 -133373269#0 507818805#0 507818805#1 -40828699 243570310#0"/>
    </vehicle>
    <vehicle id="59" depart="59.00">
        <route edges="162018352#0 162018352#1 162018352#2 951326615#0 951326613 462120960#0 951326616 24614095 307580150 -8382575#7 -8382575#6 -8382575#5 -8382575#4 -8382575#2 -8382575#1 -161181219"/>
    </vehicle>
    <vehicle id="61" depart="61.00">
        <route edges="43055598#1 147714162#1 147714162#2 147714162#3 147714162#4 147714162#5 147714162#6 147714162#7 147714162#8 147714162#9 -147764391#0 147764391#0"/>
    </vehicle>
    <vehicle id="62" depart="62.00">
        <route edges="-1005699289#0 -147714154#0 147714154#0 147714154#1 1005699289#2 231063264#1 231063264#2 231063264#3 -147759776#9 -147759776#5 -147759776#4 -147759776#3 -147759776#2 -147759776#0 -8386670#1 -8386670#0 542415804#0 542415804#1 424538847 -308337921#2 -308337921#1 -308337921#0 -308337920#0 -147714213#4 -147714213#3 45456545#4 45456545#6 45456545#7 45456486#2 45456486#3 675816101#2 675816101#3 675816101#4 150213180#3 -8382609#1 -8382609#0 -8382605#4 -8382605#3 -8382605#2 -8382605#1 -8382605#0"/>
    </vehicle>
    <vehicle id="63" depart="63.00">
        <route edges="-1473966234#1 -1473966234#0 1473966234#0 1473966234#1 8382567#1 8382567#2 8382549#1"/>
    </vehicle>
    <vehicle id="64" depart="64.00">
        <route edges="594566875#1 4309690#0 -4306850#3 -4306850#2 -4306850#1 -4306850#0 258798211 832629330#0 832629330#1 832629330#2 8382518#1 8382518#2 852990529 508690456#1 1473966234#0 1473966234#1 147764381#0 147764418#0 147764418#1 147764418#2 147764418#3 147764418#5 147764418#7 462120959#0 462120959#2 951326613 462120960#0 951326616 24614095 -147764415#2 -147764415#1 -24614098 -40798328#0 -842324385 842324384#0 842324384#1 842324384#2 842324382 842329003#0 842329003#1 -842329002 -842329004#1 -842329004#0 842343890 842343889 -40798330#2 -40798330#0 31669960#0 31669960#1 147714156#1 147714156#5 147714156#6 475163008 147714223#0 147714223#1 147714223#2 524438437 307580176#0 475163007#0"/>
    </vehicle>
    <vehicle id="65" depart="65.00">
        <route edges="-8139692#2 -8139692#1 -8139692#0 508690457 4306854 258798211 832629330#0 832629330#1 832629330#2 8382518#1 8382518#2 852990529 437714009#1 32948168#1 32948168#2 32948168#3 32948168#6 32948168#7 147714204#1 147714194#0 257034872 147767361#2 147714202#1 -147714202#1"/>
    </vehicle>
    <vehicle id="66" depart="66.00">
        <route edges="594566875#0 594566875#1 4309690#0 4306850#4 4306850#5 258798209 507818808 133606372#0 -8139836#3 -8139836#2 -8139836#1 -8139836#0 549216803#1 549216803#2 147764344#0 147764344#1 147764344#4 147764344#6 147764344#7 791118786#4 791118786#1 715149751#0 715149751#1 8382600#1 24610885 8382601#0"/>
    </vehicle>
    <vehicle id="67" depart="67.00">
        <route edges="-147759776#15 -147759776#14 -147759776#13 -147759776#12 -231063264#3 -231063264#2 -231063264#1 -1005699289#3 147759761#1 147759761#2"/>
    </vehicle>
    <vehicle id="68" depart="68.00">
        <route edges="-147714221#1 -147714221#0 147714162#1 147714162#2 147714162#3 147714162#4 147714162#5 147714162#6 147714162#7 147714162#8 147714162#9 147714162#11 147714162#12 147714162#13 147714162#14 147714211#0 147714211#1 147714211#2 147714211#3 -257034872 -159985930#2 -159985930#1 -159985930#0 1346698510#0 -239737805#6 -239737805#5 -32948168#7 -32948168#6 -32948168#3 -32948168#2 -32948168#1 31435616#0 -508690456#1 -852990529 -8382518#2 -8382518#1 -8382518#0 -832629330#1 -832629330#0 307580144#0 307580144#1 8139692#0 8139692#1 8139692#2 1095324879 832629329 4306859#0 4306859#1 291878344#0 291878344#1 1021287158 -40784644#1 -40784672#7 -40784672#6 -40784672#5 -40784672#4 -40784672#1 -40784642#9 40784642#8"/>
    </vehicle>
    <vehicle id="70" depart="70.00">