<?xml version="1.0" encoding="UTF-8"?>

<!-- generated on 2026-04-12 23:15:51.083554 by randomTrips.py UNKNOWN
<configuration>
    <net-file value="network.net.xml"/>
    <route-file value="routes.rou.xml"/>
    <validate value="True"/>
    <end value="1000.0"/>
</configuration>
-->

<!-- generated on 2026-04-12 23:15:50 by Eclipse SUMO duarouter Version 1.18.0
<configuration xmlns:xsi="http://www.w3.org/2001/XMLSchema-instance" xsi:noNamespaceSchemaLocation="http://sumo.dlr.de/xsd/duarouterConfiguration.xsd">

    <input>
        <net-file value="network.net.xml"/>
        <route-files value="trips.trips.xml"/>
    </input>

    <output>
        <output-file value="routes.rou.xml"/>
        <alternatives-output value="NUL"/>
    </output>

    <time>
        <begin value="0"/>
        <end value="1000.0"/>
    </time>

    <report>
        <no-warnings value="true"/>
        <ignore-errors value="true"/>
        <no-step-log value="true"/>
    </report>

</configuration>
-->

<routes xmlns:xsi="http://www.w3.org/2001/XMLSchema-instance" xsi:noNamespaceSchemaLocation="http://sumo.dlr.de/xsd/routes_file.xsd">
    <vehicle id="0" depart="0.00">
        <route edges="35474708 -1174461333 -30912902#1 -30912902#0 -1174461334#1 39654094#0 39654094#2 1174623150#0 251256098 39654345#0 453493822#1 453493822#6 453493822#8 453493822#9 453493822#10 453493822#11 453493822#12 453493822#13 434882601#0 434882601#2 434882601#3 434882601#4 109406983#1 109406983#2 109406983#3 109406983#4 128244780 35202691#0 30405564#0 30405564#1 30405564#2 109406986 -109406986"/>
    </vehicle>
    <vehicle id="1" depart="1.00">
        <route edges="1014684308#8 453762943#1 1174565667#0 1174565667#1 1014684309 1174565666#0 453761206#0 178413106#1 -482122892#5 -482122892#4 -482122892#3"/>
    </vehicle>
    <vehicle id="2" depart="2.00">
        <route edges="39607956#0 39601146 448195881#1 448195881#2 448195881#3 1174863224#0 453762947#1 453762946#0 453762946#1 453762943#1 1174565667#0 1174565667#1 39587067#0 39587067#1 39587108#0 39587108#1 39587108#2 -39587009#2 -39587009#1 -39587009#0 39586944#0 39586944#1 39586944#2 39586944#3 39586944#4"/>
    </vehicle>
    <vehicle id="3" depart="3.00">
        <route edges="483715766#2 483715766#3 483715766#4 483715766#5 483715766#6 800153230#0 800153230#1 608418840#1 608418840#2 608418840#3 841248734#0 157295454#1 1174462758#0 211090188#1 211090188#2 -211090188#2"/>
    </vehicle>
    <vehicle id="4" depart="4.00">
        <route edges="1314938962#0 608418574#0 608418574#3 741767467#0 741767467#1 608418577 608418576#0 189908446 219527968#0 219527968#2 219527968#3 483715766#0 483715766#1 483715766#2 483715766#3 483715766#4 483715766#5 483715766#6 800153230#0 800153230#1 608418840#1 608418840#2 608418840#3 841248734#0 212706763#2 212706763#3 193149514#0 193149514#1 -39654094#3 -39654094#1 1174461334#0 30912902#0 -30912902#0 -1174461334#1"/>
    </vehicle>
    <vehicle id="5" depart="5.00">
        <route edges="-454039832#1 -454039832#0 -480743163 480743163 454039832#0 454039832#1 304680075 1018561643 14326205#0 14326205#1 1188369999#0 1188369999#1 482263508#0 482263508#1 224637998 128363655#0 128363655#1 128363659#0 128363659#1 482240915#1 128363661 207634513"/>
    </vehicle>
    <vehicle id="6" depart="6.00">
        <route edges="-1169722591#1 -1169722591#0 -1030031001#6 -1030031001#5 -1030031001#4 -1030031001#3 -1030031001#0 128363659#0 128363659#1 304680072 -224637998 -482263508#1 -482263508#0 -1188369999#1 -1188369999#0 -14326205#1 -14326205#0 -1018561643 -1392533860 14326182#0 14326182#1 14326258#0 14326258#1 14326258#2 1016567885#0 1016567885#1 14326256 1016997824 128245300#1 167487342#1 128245298#1 128245298#2 128245297#0 608418577 608418576#0 -13715172#2 -13715172#0 -1174193044#1 -453493822#13 -453493822#12 -453493822#11 -453493822#10 -453493822#9 -453493822#8 -453493822#7"/>
    </vehicle>
    <vehicle id="7" depart="7.00">
        <route edges="36836250#0 -453493822#13 -453493822#12 -453493822#11 -453493822#10 -453493822#9 -453493822#8 -453493822#7 -453493822#3 -39654345#1 -251256098 -1174623150#1 -193149514#2 -193149514#0 1187724078 106572534#0 106572534#1 106572529#1 167487405#1 167487405#2 -231348277 106572538#0 106572538#1 106572538#2 106572538#4 227573433 37092314#1 37092314#3 37092314#4 219329564#0 219329564#1"/>
    </vehicle>
    <vehicle id="8" depart="8.00">
        <route edges="-456405097 39609005#7 39609005#8 39609005#9 39609005#10 -448809958 39608973#1 -1016388206#4 39598458#0 39598458#1 39598458#2 704509573#0 704509573#3 704509573#4 704509573#5 704509573#6 704509573#7 704509573#8 704509573#9 704509573#10 453762947#1 453762946#0 453762946#1 453762944#1 453762944#3 453762944#4 453762944#5 1017147074#0 1017147074#1 1017147074#2 706644344 724454821 448867786 724454816 1359821180#1 388048416 30417990#0"/>
    </vehicle>
    <vehicle id="9" depart="9.00">
        <route edges="448568813 1460565741#0 1460565741#1 1460565741#2 -448195881#1 -39601146 39607956#1 39607956#2 39607956#5 39607956#6 39607956#7 1016388206#2 1016388206#4 -1016388206#4"/>
    </vehicle>
    <vehicle id="10" depart="10.00">
        <route edges="448195881#3 1174863224#0 453762947#1 453762946#0 453762946#1 453762943#1 1174565667#0 1174565667#1 1014684309 1174565666#0 453761206#0 453761206#3 453761206#4 453761206#5 453761206#9 1174565664 310786269#2 39597607#0 39597607#1 39597607#2"/>
    </vehicle>
    <vehicle id="11" depart="11.00">
        <route edges="1174193045#0 -453493822#13 -453493822#12 -453493822#11 -453493822#10 -453493822#9 -453493822#8 -453493822#7 1014684308#0 1014684308#1 1014684308#3 1014684308#4 1014684308#5 1014684308#6 1014684308#7 1014684308#8 453762943#1 1174565667#0 1174565667#1 1014684309 1174565666#0 453761206#0 453761206#3 453761206#4 453761206#5 453761206#9 1174565664 310786269#2 39597607#0 39597607#1 39597607#2 39597607#3 39597607#4 39597607#5 39597607#6 -39597607#6 -39597607#5"/>
    </vehicle>
    <vehicle id="12" depart="12.00">
        <route edges="734269566 176070912 1018656236 212711374#1 608418836#1 483715766#0 483715766#1 483715766#2 483715766#3 483715766#4 483715766#5 483715766#6 800153230#0 800153230#1 608418840#1 608418840#2 608418840#3 841248734#0 212706763#2 212706763#3 193149514#0 193149514#1 -39654094#3 -39654094#1 1174461334#0 30912902#0 30912902#1 1174461333 228569587 1174461332 741767470#0 -1174464894#2 -1174464894#1 1174464890#0"/>
    </vehicle>
    <vehicle id="13" depart="13.00">
        <route edges="-211090188#2 -211090188#1 167487325#3 453494878#0 212706763#2 212706763#3 193149514#0 193149514#1 1174623150#0 251256098 39654345#0 453493822#1 453493822#6 453493822#8 453493822#9 453493822#10 453493822#11 453493822#12 453493822#13 1174193044#0 13715172#0 13715172#1 189908446 1164717213 608418573#0 734269564#0 734269564#2 608418574#0 608418574#3 434882592#1 13848825#0 13848825#1 13848825#2 13848836#0 13848836#1 13848836#2 1392533860 1018561643 14326205#0 14326205#1 1188369999#0 1188369999#1 482263508#0 482263508#1 224637998 128363655#0 -548351356#5 -548351356#4 -548351356#3 -548351356#2 -215080697#4 -215080697#3 -215080697#2"/>
    </vehicle>
    <vehicle id="14" depart="14.00">
        <route edges="456405088 701403029 -741767470#1 -741767470#0 1174461331 1209420439 30912892#0 30912892#1 30912892#3 1174464896#0 1174464896#1 448568810#0 448568810#1 741767469 1187724077#1 39607956#0 39607956#1 39607956#2 39607956#5 39607956#6 39607956#7 1016388206#2 1016388206#4 1016388206#6 39608733 39608754 -448867798#6 -448867798#4 -448867798#2 -448867798#1 30912893"/>
    </vehicle>
    <vehicle id="15" depart="15.00">
        <route edges="448568810#0 448568810#1 35475028#0 35475028#1 35475028#2 35475028#3 1174623150#0 251256098 39654345#0 453493822#1 39546201#1 39607205#0"/>
    </vehicle>
    <vehicle id="16" depart="16.00">
        <route edges="212710704 39609903#0 39609903#1 453494265#2 453494265#4 36835973#1 36835973#2 209442100 209436196#7-AddedOnRampEdge 209436196#7 608419120#0 608419120#2 608419120#3 453493822#6 453493822#8 453493822#9 453493822#10 453493822#11 453493822#12 453493822#13 434882601#0 434882601#2 434882601#3 434882601#4 434882601#5 434882601#6 434882601#7 39631877#1 128245796#0 1189200206 800460937#0 1189200207 27149321 39632852#0 39632852#1 39632852#2 1174863225#0 1174863225#1 800460938#0 1174863226 34627575#0 1187730285#0 8367069#0 8367069#1"/>
    </vehicle>
    <vehicle id="17" depart="17.00">
        <route edges="1186569112#0 1186569112#1 1186568756#2 172963174#1 172963174#2 172963174#3 172963174#5 448867793#0 448867793#1 13714843#1 743461568#0 1174461334#0 30912902#0 30912902#1 1174461333 228569587"/>
    </vehicle>
    <vehicle id="18" depart="18.00">
        <route edges="453494265#2 453494265#4 1177120144 209442097 13262695#0 13262695#3 13262695#4 13262695#5 13262770 212711376 211561641 1020088533 1420912761#0 1420912761#1 30912924#0 30912924#1 30912924#2 30912924#3 30912924#4"/>
    </vehicle>
    <vehicle id="19" depart="19.00">
        <route edges="464777283#0 464777281#1 -868014850#0 -741767470#1 -741767470#0 1174461331 1209420439 30912892#0 30912892#1 30912892#3 1174464896#0 1174464896#1 448568810#0 448568810#1 35475028#0 35475028#1 35475028#2 35475028#3 1174623150#0 251256098 39654345#0 453493822#1 453493822#6 453493822#8 453493822#9 453493822#10 453493822#11 453493822#12 453493822#13 434882601#0 434882601#2 434882601#3 434882601#4 434882601#5 434882601#6 434882601#7 39631877#1 128245796#0 1189200206 800460937#0 1189200207 27149321"/>
    </vehicle>
    <vehicle id="20" depart="20.00">
        <route edges="39597607#8 39597607#9 39597607#10 39597607#12 39597607#13 39597607#15 39597607#16 34988345#0 167487492#0 167487492#2 1028861122#2-AddedOnRampEdge 1028861122#2 1028861122#3 1028861122#4 1267703679#0 8367092#0 434872537 39633008#0 39633008#1 1174863225#0 1174863225#1 800460938#0 -1174863227#3 -1174863227#1 -1174863227#0 1187730286 -1187730286"/>
    </vehicle>
    <vehicle id="21" depart="21.00">
        <route edges="-466403128#4 -466403128#3 -466403128#1 -466403128#0 39549565#1 453493822#11 453493822#12 453493822#13 434882601#0 37956823 1044731059"/>
    </vehicle>
    <vehicle id="22" depart="22.00">
        <route edges="-172963172#3 -172963172#2 -172963172#1 -172963172#0 -231348277 30912910#0 30912910#1 30912910#2 -222884335#1 -222884335#0 -704228229#0 219017465 219017466#1 172963173#4 13262695#3 13262695#4 13262695#5 13262770 95802284 1018298781 251257499#0 212711378#0 212711378#1 212711378#2 454037681#2 454037681#3 212711375#0 212711375#1 741767468#0 741767468#1 232445175#0 232445175#2 734269564#0 734269564#2 608418574#0 28618362#2 -376599040 -546881508#5"/>
    </vehicle>
    <vehicle id="23" depart="23.00">
        <route edges="-215080697#1 -215080697#0 215080697#0 215080697#1 215080697#2 215080697#3 215080697#4 548351356#2 548351356#3 548351356#4 548351356#5 128363655#1 128363659#0 128363659#1 304680072 -224637998 -482263508#1 -482263508#0 -1188369999#1 -1188369999#0 -14326205#1 -14326205#0 -1018561643 -1392533860 14326182#0 14326182#1 14326258#0 14326258#1 14326258#2 1016567885#0 1016567885#1 14326256 1016997824 128245300#1 167487342#1 128245298#1 128245298#2 128245297#0 608418577 608418576#0 189908446 219527968#0 219527968#2 219527968#3 -608418836#1 -212711374#1 -1018656236 1018656236"/>
    </vehicle>
    <vehicle id="24" depart="24.00">
        <route edges="34683151#0 34683151#2 1174863227#0 1174863227#1 1174863227#2 128246659#1 128246660#0 128246660#1 128133836#0 128133836#2 -434882601#7 -434882601#6 -434882601#5 -434882601#4 -434882601#3 -434882601#2 -434882601#1 -453493822#13 -453493822#12 -453493822#11 -453493822#10 -453493822#9 -453493822#8 -453493822#7 -453493822#3 1120859258#1 1120859258#2 1120859258#3 800153229#0 453494265#1 453494265#2 453494265#4 1177120144 209442097 704228228#1 704228229#0 104179539#1 705173664 -30912915 1016197023#0 1016197023#1 172963169 1186124484"/>
    </vehicle>
    <vehicle id="25" depart="25.00">
        <route edges="1177650958#3 705491646#0 705491646#1 705491646#2 1314938962#0 608418574#0 608418574#3 741767467#0 741767467#1 608418577 608418576#0 189908446 219527968#0 219527968#2 219527968#3 483715766#0 483715766#1 483715766#2 483715766#3 483715766#4 483715766#5 483715766#6 800153230#0 800153230#1 608418840#1 608418840#2 608418840#3 841248734#0 212706763#2 212706763#3 193149514#0 193149514#1 -35475028#4 -35475028#2 -35475028#1 -35475028#0 741767469 1187724077#1 39607956#0 39607956#1 39607956#2 39607956#5 39607956#6 39607956#7 1016388206#2 1016388206#4 39608992#1 448809958 456405094#0 456405094#1 39609005#1 -1354154764 1354154762 -456405096"/>
    </vehicle>
    <vehicle id="26" depart="26.00">
        <route edges="1000487472#1 -1000486584 -1000487472#0 -104688711#1 -104688711#0 -1000487924#1 173372575#0 1464016902#1 108385736#1 108385736#2 108385736#3 167487384#3 167487384#4 167487384#5 167487384#7 1184878068#0 13714507#1 105637465 209436196#1 209436196#2 209436196#5 209436196#6 209436196#7-AddedOnRampEdge 209436196#7 800153230#0 800153230#1 453494265#1 453494265#2 453494265#4 1177120144 209442097 704228228#1 704228229#0 704228230#1 704228230#2 704228230#3"/>
    </vehicle>
    <vehicle id="27" depart="27.00">
        <route edges="36836248#0 36836248#1 36836250#0 -453493822#13 -453493822#12 -453493822#11 -453493822#10 -453493822#9 -453493822#8 -453493822#7 -453493822#3 -39654345#1 -251256098 -1174623150#1 -193149514#2 -193149514#0 1187724078 106572534#0 106572534#1 106572529#1 167487405#1 167487405#2 -231348277 30912910#0 30912910#1"/>
    </vehicle>
    <vehicle id="28" depart="28.00">
        <route edges="-39607956#0 39607956#0 39601146"/>
    </vehicle>
    <vehicle id="29" depart="29.00">
        <route edges="-39597607#3 -39597607#2 -39597607#1 -39597607#0 39597779#1 39590262#0 39590262#1 39590262#2 39590262#3 39590262#4 1083211596#2 1083211596#3 1083211596#4 105637466#1 105637466#2 1174863223#0 39633790#2 39633790#3 178413106#1 -482122892#5 -482122892#4 -482122892#3 -482122892#2 -482122892#1 -482122892#0 1188987787 1188987789"/>
    </vehicle>
    <vehicle id="30" depart="30.00">
        <route edges="914265946#1 -914265946#1 -914265946#0 30912891 263330569 263330686 39607956#0 39601146 448195881#1 448195881#2 448195881#3 1174863224#0 910431582#1 910431582#2 903569596#0 903569596#1 1460565735 1165438261 1460565736 453493822#1 453493822#6 453493822#8 36835972#0 36835972#2"/>
    </vehicle>
    <vehicle id="31" depart="31.00">
        <route edges="222884335#1 -222884335#1 -222884335#0 704228230#1 704228230#2 704228230#3 704228230#4 453847722#1 212706763#2 212706763#3 193149514#0 193149514#1 1174623150#0 251256098 39654345#0 453493822#1 1014684308#0 1014684308#1 1014684308#3 1014684308#4 1014684308#5 1014684308#6 1014684308#7 1014684308#8 453762943#1 1174565667#0 1174565667#1 39587067#0 39587067#1 39587108#0 39587108#1 39587108#2"/>
    </vehicle>
    <vehicle id="32" depart="32.00">
        <route edges="453847708 453847710#1 -453847710#1 -453847710#0 -453847706 39650861#0"/>
    </vehicle>
    <vehicle id="33" depart="33.00">
        <route edges="-466403128#5 -466403128#4 -466403128#3 -466403128#1 -466403128#0 39549565#1 -453493822#10 -453493822#9 -453493822#8 -453493822#7 -453493822#3 -39654345#1 -251256098 -1174623150#1 -39654094#3 -39654094#1 1174461334#0 30912902#0 30912902#1 1174461333 228569587 1174461332 741767470#0 -1174464894#2 -1174464894#1 1174464890#0 1174464890#1 -1174464890#1"/>
    </vehicle>
    <vehicle id="34" depart="34.00">
        <route edges="108385736#3 167487384#3 167487384#4 167487384#5 167487384#7 1184878068#0 13714507#1 105637465 209436196#1 209436196#2 209436196#5 209436196#6 209436196#7-AddedOnRampEdge 209436196#7 800153230#0 800153230#1 608418840#1 608418840#2 608418840#3 841248734#0 212706763#2 212706763#3 193149514#0 193149514#1 -35475028#4 -35475028#2 -35475028#1 -35475028#0 741767469 1187724077#1 39607956#0 39607956#1 39607956#2 39607956#5 39607956#6 39607956#7 1016388206#2 1016388206#4 39608992#1 1016192005#0 1016192005#1"/>
    </vehicle>
    <vehicle id="35" depart="35.00">
        <route edges="-453762944#3 -453762944#2 453762943#1 1174565667#0 1174565667#1 1014684309 1174565666#0 1174565665#1 704509573#3 704509573#4 704509573#5 704509573#6 704509573#7"/>
    </vehicle>
    <vehicle id="36" depart="36.00">
        <route edges="482122887#3 482122887#4 39546381 -453493822#7 -453493822#3 1120859258#1 1120859258#2"/>
    </vehicle>
    <vehicle id="37" depart="37.00">
        <route edges="376599038#1 376599038#2 173372575#0 705491646#0 705491646#1 705491646#2 1314938962#0 608418574#0 608418574#3 741767467#0 741767467#1 -128245297#1 -128245298#2 -128245298#1 -725917412 109406990#0 109406990#1 109406990#2 -109406986 1010326125 34647798 1189200209#0 1189200209#1 1189200208 1189200205#0 1189200205#1 1189200207 27149321 39632852#0 39632852#1 39632852#2 1174863225#0 1174863225#1 128246658#0 128246658#1 128246660#0 128246660#1 128133836#0 128133836#2"/>
    </vehicle>
    <vehicle id="39" depart="39.00">
        <route edges="-95802286#3 95802286#3 -106572538#4 -106572538#3 -106572538#1 -106572538#0 30912910#0 30912910#1 30912910#2 -222884335#1 -222884335#0 704228230#1 704228230#2 704228230#3 704228230#4 453847722#1 212706763#2 212706763#3 193149514#0 193149514#1 1174623150#0 251256098 39654345#0 453493822#1 453493822#6 453493822#8 453493822#9 453493822#10 453493822#11 453493822#12 453493822#13 434882601#0 434882601#2 434882601#3 434882601#4 434882601#5 434882601#6 434882601#7 39631877#1 128245796#0 1189200206 800460937#0 1189200207 27149321 39632852#0 39632852#1 39632852#2 1174863225#0 1174863225#1 800460938#0 1174863226 34627575#0 59525260#0 59525260#2 59525260#3 59525260#4 59525260#5 59525260#6 59525260#7 59525260#8 -8367070#4"/>
    </vehicle>
    <vehicle id="40" depart="40.00">
        <route edges="232135018#1 232135018#2 232135018#3 211561639#1 -222884335#1 -222884335#0 704228230#1 704228230#2 704228230#3 704228230#4 453847722#1 212706763#2 212706763#3 193149514#0 193149514#1 1174623150#0 251256098 39654345#0 453493822#1 1014684308#0 1014684308#1 1014684308#3 1014684308#4 1014684308#5"/>
    </vehicle>
    <vehicle id="41" depart="41.00">
        <route edges="27149321 39632852#0 39632852#1 39632852#2 1174863225#0 1174863225#1 128246658#0 128246658#1 128246660#0 128246660#1 434872537 1190013241#0 128245797#0 128244780 1174050137#0 13854847#0 13854847#1 13854847#2 608418576#0 189908446 1164717213 608418573#0 734269564#0 734269564#2 608418574#0 28618362#2 -376599040 -546881508#5 -546881508#4 -546881508#3 546881508#3"/>
    </vehicle>
    <vehicle id="42" depart="42.00">
        <route edges="1233317322#1 30405423#1 1172502989#0 34683151#0 34683151#2 1174863227#0 1174863227#1 1174863227#2 128246659#1 128246660#0 128246660#1 128133836#0 128133836#2 -434882601#7 -434882601#6 -434882601#5 -434882601#4 -434882601#3 -434882601#2 -434882601#1 -453493822#13 -453493822#12 39549565#0 466403128#0 466403128#1 466403128#3 466403128#4 466403128#5 -466403128#5"/>
    </vehicle>
    <vehicle id="43" depart="43.00">
        <route edges="95802284 1018298781 251257499#0 212711378#0 212711378#1 212711378#2 454037681#2 454037681#3 13714507#1 105637465 209436196#1 209436196#2 209436196#5 209436196#6"/>
    </vehicle>
    <vehicle id="44" depart="44.00">
        <route edges="-207634523#2 -207634523#0 -1174689832 1174689832 207634523#0 207634523#1 482261339#0 1174567450 482261341#1 304680071 304680072 -224637998 -482263508#1 -482263508#0 -1188369999#1 -1188369999#0"/>
    </vehicle>
    <vehicle id="45" depart="45.00">
        <route edges="-228569587 -1174461333 -30912902#1 -30912902#0 -1174461334#1 39654094#0 39654094#2 1174623150#0 251256098 39654345#0 453493822#1 453493822#6 453493822#8 453493822#9 453493822#10 453493822#11 453493822#12 453493822#13 434882601#0 434882601#2 434882601#3 434882601#4 109406983#1 109406983#2 109406983#3 109406983#4 128244780 35202691#0 30405564#0 30405564#1 30405564#2 1010326125 34647798"/>
    </vehicle>
    <vehicle id="46" depart="46.00">
        <route edges="39895285#0 39895285#1 36748085#0 -207634523#2 -207634523#0 -1174689832 -200072875 -482296563#1 207634492 482291294 167487372#0 167487372#2 167487372#3 167487370#1 725917412 128245298#1 128245298#2 128245297#0 608418577 608418576#0 189908446 219527968#0 219527968#2 219527968#3 483715766#0 483715766#1 483715766#2 483715766#3 483715766#4 483715766#5 483715766#6 800153230#0 800153230#1 453494265#1 453494265#2 453494265#4 1177120144 209442097 13262695#0 13262695#3 13262695#4 13262695#5 13262770 95802284 1018298781 1352094015 1352094014#1"/>
    </vehicle>
    <vehicle id="47" depart="47.00">
        <route edges="-13714843#1 13714843#1 743461568#0 39654094#0 39654094#2 1174623150#0 251256098 39654345#0 453493822#1 453493822#6 453493822#8 453493822#9 453493822#10 453493822#11 453493822#12 453493822#13 434882601#0 434882601#2 434882601#3 434882601#4 109406983#1 109406983#2 109406983#3 109406983#4 128244780 35202691#0 30405564#0 30405564#1 30405564#2 34648522 1189200209#0 1189200209#1 1189200208 1189200205#0"/>
    </vehicle>
    <vehicle id="48" depart="48.00">
        <route edges="94028590#1 94028590#2 -1186124484 -172963169 -1016197023#1 -1016197023#0 30912915 704228227#0 704228227#1 704228227#2 704228227#3 -222884335#1 -222884335#0 704228230#1 704228230#2 704228230#3 704228230#4 453847722#1 212710686 212710704"/>
    </vehicle>
    <vehicle id="50" depart="50.00">
        <route edges="-1030031001#0 128363659#0 128363659#1 304680072 -224637998 -482263508#1 -482263508#0 -1188369999#1 -1188369999#0 -14326205#1 -14326205#0 -1018561643 -1392533860 14326182#0 14326182#1 14326258#0 14326258#1 14326258#2 1016567885#0 1016567885#1 14326256 1016997824 128245300#1 167487342#1 128245298#1 128245298#2 128245297#0 608418577 608418576#0 189908446 219527968#0 219527968#2 219527968#3 483715766#0 483715766#1 483715766#2 483715766#3 483715766#4 483715766#5 483715766#6 608419120#0 608419120#2 608419120#3 1014684308#0 1014684308#1 1014684308#3 1014684308#4 1014684308#5 1014684308#6 1014684308#7 1014684308#8 -453762946#1 -453762946#0 -453762947#2 -1174863224#1 -448195881#3 39650114#0 39598714#2"/>
    </vehicle>
    <vehicle id="51" depart="51.00">
        <route edges="39587009#0 39587009#1 39586911 39586894#3 39586894#4 39586894#5 39586894#6 1017147074#2 706644344 724454821 580264834#0 388048413#0 425318823 1174193045#0 1174193044#0 13715172#0 13715172#1 189908446 1164717213 608418573#0 734269564#0 734269564#2 608418574#0 608418574#3 434882592#1 13848825#0 13848825#1 13848825#2 13848836#0 13848836#1 13848836#2 1392533860 1018561643 14326205#0 14326205#1 1188369999#0 1188369999#1 482263508#0 482263508#1 224637998 128363655#0 -548351356#5 215079215#0 215079215#1 215079215#2"/>
    </vehicle>
    <vehicle id="52" depart="52.00">
        <route edges="1000487472#1 -1000486584 -1000487472#0 -104688711#1 -104688711#0 -1000487924#1 173372575#0 705491646#0 705491646#1 705491646#2 1314938962#0 608418574#0 608418574#3 741767467#0 741767467#1 608418577 608418576#0 189908446 219527968#0 219527968#2 219527968#3 483715766#0 483715766#1 483715766#2 483715766#3 -36835972#3 36835972#3"/>
    </vehicle>
    <vehicle id="53" depart="53.00">
        <route edges="-232135018#0 704228227#2 704228227#3 -222884335#1 -222884335#0 -704228229#0 219017465 219017466#1 172963173#4 13262695#3 13262695#4 13262695#5 13262770 95802284 1018298781 251257499#0 212711378#0 212711378#1 212711378#2 454037681#2 454037681#3 212711375#0 212711375#1 741767468#0 741767468#1 232445175#0 232445175#2 734269564#0 734269564#2 608418574#0 608418574#3 434882592#1 13848825#0 13848825#1 13848825#2 13848836#0 13848836#1"/>
    </vehicle>
    <vehicle id="54" depart="54.00">
        <route edges="1420912761#0 1420912761#1 -1420912761#1 -1420912761#0 1420912760#0 1420912760#1 1420912760#2 12391255#0 212711378#0 212711378#1 212711378#2 454037681#2 454037681#3 13714507#1 105637465 209436196#1 209436196#2 209436196#5 209436196#6 209436196#7-AddedOnRampEdge 209436196#7 608419120#0 608419120#2 608419120#3 453493822#6 453493822#8 453493822#9 453493822#10 453493822#11 453493822#12 453493822#13 -1174193045#0 -425318823 706644343#1"/>
    </vehicle>
    <vehicle id="55" depart="55.00">
        <route edges="482122887#3 482122887#4 39546381 -453493822#7 1014684308#0 1014684308#1 1014684308#3 1014684308#4 1014684308#5 1014684308#6"/>
    </vehicle>
    <vehicle id="56" depart="56.00">
        <route edges="176070912 1018656236 212711374#1 608418836#1 483715766#0 483715766#1 483715766#2 483715766#3 483715766#4 483715766#5 483715766#6 800153230#0 800153230#1 608418840#1 608418840#2 608418840#3 841248734#0 212706763#2 212706763#3 193149514#0 193149514#1 -39654094#3 -39654094#1 1174461334#0 30912902#0 30912902#1 1174461333 228569587 1174461332 741767470#0 741767470#1 1174464888 398558728#0 -398558728#0"/>
    </vehicle>
    <vehicle id="57" depart="57.00">
        <route edges="571754741#2 1233317322#0 1233317322#1 30405423#1 1172502989#0 34683151#0 34683151#2 1174863227#0 1174863227#1 1174863227#2 128246659#1 128246660#0 128246660#1 128133836#0 128133836#2 -434882601#7 -434882601#6 -434882601#5 -434882601#4 -434882601#3 -434882601#2 -434882601#1 -453493822#13 -453493822#12 -453493822#11 -453493822#10 -453493822#9 -453493822#8 -453493822#7 -453493822#3 1120859258#1 1120859258#2 1120859258#3 800153229#0 453494265#1 453494265#2 453494265#4 1177120144 209442097 13262695#0 13262695#3 13262695#4 13262695#5 13262770 212711376 211561641 1020088533 479645330"/>
    </vehicle>
    <vehicle id="58" depart="58.00">
        <route edges="104179522#2 -167487499 -1016392203 172963174#0 172963174#1 172963174#2 172963174#3 172963174#5 167487325#1 167487325#3 453494878#0 212706763#2 212706763#3 193149514#0 193149514#1 1174623150#0 251256098 39654345#0 453493822#1 453493822#6 453493822#8 36835972#0"/>
    </vehicle>
    <vehicle id="59" depart="59.00">
        <route edges="30912892#0 30912892#1 30912892#3 1174464896#0 1174464896#1 448568810#0 448568810#1 35475028#0 35475028#1 35475028#2 35475028#3 1174623150#0 251256098 39654345#0 453493822#1 1014684308#0 1014684308#1 1014684308#3 1014684308#4 1014684308#5 1014684308#6 1014684308#7 1014684308#8 453762943#1 1174565667#0 1174565667#1 1014684309 1174565666#0 453761206#0 453761206#3 453761206#4 453761206#5 453761206#9 1174565664 310786269#2 39597607#0 39597607#1 39597607#2 39597607#3 39597607#4 39597607#5 39597607#6 -39597607#6 -39597607#5 -39597607#4 -39597607#3 -39597607#2"/>
    </vehicle>
    <vehicle id="60" depart="60.00">
        <route edges="39631877#1 128245797#0 128244780 1174050137#0 13854847#0 13854847#1 13854847#2 608418576#0 189908446 1164717213 608418573#0 734269564#0 734269564#2 608418574#0 608418574#3 434882592#1 13848825#0 13848825#1 13848825#2 13848836#0 13848836#1 13848836#2 1392533860 1018561643 14326205#0 14326205#1 1188369999#0 1188369999#1 482263508#0 482263508#1 224637998 128363655#0 -548351356#5 -548351356#4 -548351356#3 -548351356#2 -215080697#4 -215080697#3 -215080697#2 -215080697#1 -215080697#0 215080697#0 215080697#1 215080697#2 215080697#3"/>
    </vehicle>
    <vehicle id="61" depart="61.00">
        <route edges="39650790#1 -39650790#1 -39650790#0 1014684308#8 453762944#1 453762944#3 453762944#4 453762944#5 1017147074#0 1017147074#1 1017147074#2 706644344 724454821 580264834#0 388048413#0 425318823 1174193045#0 1174193044#0 13715172#0 13715172#1 189908446 219527968#0 219527968#2 219527968#3 -608418836#1 -212711374#1 212711374#1"/>
    </vehicle>
    <vehicle id="62" depart="62.00">
        <route edges="-1000486584 -1000487472#0 -104688711#1 -104688711#0 -1000487924#1 173372575#0 1464016902#1 108385736#1 108385736#2 108385736#3 167487384#3 167487384#4 167487384#5 167487384#7 1184878068#0 13714507#1 105637465 209436196#1 209436196#2 209436196#5 209436196#6 209436196#7-AddedOnRampEdge 209436196#7 608419120#0 608419120#2 608419120#3 1014684308#0 1014684308#1 1014684308#3 1014684308#4 1014684308#5 1014684308#6 1014684308#7 1014684308#8 -453762946#1 -453762946#0 -453762947#2 910431582#1 910431582#2 903569596#0 903569596#1 1460565735 1165438261"/>
    </vehicle>
    <vehicle id="63" depart="63.00">
        <route edges="-1085592955#0 1085592955#0 1085592955#1 209442100 209436196#7-AddedOnRampEdge 209436196#7 800153230#0 800153230#1 608418840#1 608418840#2 608418840#3 841248734#0 212706763#2 212706763#3 193149514#0 193149514#1 -35475028#4 -35475028#2 -35475028#1 -35475028#0 741767469 1187724077#1 39607956#0 39607956#1 39607956#2 263330574 914265946#0 914265946#1 263330573#0 628288596"/>
    </vehicle>
    <vehicle id="64" depart="64.00">
        <route edges="482122892#2 482122892#3 482122892#4 482122892#5 -482122892#5 -482122892#4 -482122892#3 -482122892#2 -482122892#1 -482122892#0 1188987787 39598055 306780234#1 306780234#2 453761206#0 453761206#3"/>
    </vehicle>
    <vehicle id="65" depart="65.00">
        <route edges="106572538#1 106572538#2 106572538#4 -95802286#3 104179522#1 104179522#2 -167487499 -1016392203 172963174#0 172963174#1 172963174#2 172963174#3 172963174#5 448867793#0 448867793#1 13714843#1 -13714843#1"/>
    </vehicle>
    <vehicle id="66" depart="66.00">
        <route edges="482122892#1 482122892#2 482122892#3 482122892#4 482122892#5 39597960#1 453761206#4 453761206#5 453761206#9 1174565664 39590262#0 39590262#1 39590262#2 39590262#3 39590262#4 1083211596#2 1083211596#3 1083211596#4 1083211597#0 1346637641 704509573#0 704509573#3 704509573#4 704509573#5 704509573#6 704509573#7 704509573#8 704509573#9 704509573#10 910431582#1 910431582#2 903569596#0 903569596#1 1460565735 1165438261 1460565736 453493822#1 453493822#6 453493822#8 453493822#9 453493822#10 453493822#11 453493822#12 453493822#13 1174193044#0 13715172#0 13715172#1 189908446 1164717213 608418573#0 734269564#0 734269564#2 1314938961 1177650955 705491647#0 705491647#2 705491645#0 705491645#1 705491645#2"/>
    </vehicle>
    <vehicle id="67" depart="67.00">