<?xml version="1.0" encoding="UTF-8"?>

<!-- generated on 2026-02-26 23:16:16 by Eclipse SUMO netconvert Version 1.18.0
<configuration xmlns:xsi="http://www.w3.org/2001/XMLSchema-instance" xsi:noNamespaceSchemaLocation="http://sumo.dlr.de/xsd/netconvertConfiguration.xsd">

    <input>
        <osm-files value="map.osm"/>
    </input>

    <output>
        <output-file value="map.net.xml"/>
    </output>

    <projection>
        <proj.utm value="true"/>
    </projection>

    <processing>
        <roundabouts.guess value="true"/>
    </processing>

    <building_defaults>
        <default.speed value="13.9"/>
    </building_defaults>

    <tls_building>
        <tls.discard-simple value="true"/>
        <tls.guess value="true"/>
    </tls_building>

    <ramp_guessing>
        <ramps.guess value="true"/>
    </ramp_guessing>

    <edge_removal>
        <remove-edges.isolated value="true"/>
    </edge_removal>

    <junctions>
        <junctions.join value="true"/>
    </junctions>

</configuration>
-->

<net version="1.16" junctionCornerDetail="5" limitTurnSpeed="5.50" xmlns:xsi="http://www.w3.org/2001/XMLSchema-instance" xsi:noNamespaceSchemaLocation="http://sumo.dlr.de/xsd/net_file.xsd">

    <location netOffset="-732114.48,-4201941.76" convBoundary="0.00,0.00,2035.74,1500.09" origBoundary="23.641315,37.935238,23.664703,37.948711" projParameter="+proj=utm +zone=34 +ellps=WGS84 +datum=WGS84 +units=m +no_defs"/>

    <type id="highway.footway" priority="1" numLanes="1" speed="2.78" allow="pedestrian" oneway="1" width="2.00"/>
    <type id="highway.living_street" priority="2" numLanes="1" speed="2.78" disallow="tram rail_urban rail rail_electric rail_fast ship" oneway="0"/>
    <type id="highway.path" priority="1" numLanes="1" speed="5.56" allow="pedestrian bicycle" oneway="0" width="2.00"/>
    <type id="highway.pedestrian" priority="1" numLanes="1" speed="2.78" allow="pedestrian" oneway="1" width="2.00"/>
    <type id="highway.primary" priority="12" numLanes="2" speed="27.78" disallow="tram rail_urban rail rail_electric rail_fast ship" oneway="0"/>
    <type id="highway.residential" priority="3" numLanes="1" speed="13.89" disallow="tram rail_urban rail rail_electric rail_fast ship" oneway="0"/>
    <type id="highway.secondary" priority="11" numLanes="1" speed="27.78" disallow="tram rail_urban rail rail_electric rail_fast ship" oneway="0"/>
    <type id="highway.secondary_link" priority="6" numLanes="1" speed="22.22" disallow="tram rail_urban rail rail_electric rail_fast ship" oneway="0"/>
    <type id="highway.service" priority="1" numLanes="1" speed="5.56" allow="pedestrian delivery bicycle" oneway="0"/>
    <type id="highway.steps" priority="1" numLanes="1" speed="1.39" allow="pedestrian" oneway="1" width="2.00"/>
    <type id="highway.tertiary" priority="10" numLanes="1" speed="22.22" disallow="tram rail_urban rail rail_electric rail_fast ship" oneway="0"/>
    <type id="railway.subway" priority="18" numLanes="1" speed="27.78" allow="rail_urban" oneway="1"/>
    <type id="railway.tram" priority="17" numLanes="1" speed="13.89" allow="tram" oneway="1"/>

    <edge id=":10131942183_0" function="internal">
        <lane id=":10131942183_0_0" index="0" allow="tram" speed="13.89" length="9.45" shape="1193.20,1310.55 1188.10,1302.60"/>
    </edge>
    <edge id=":10131942183_1" function="internal">
        <lane id=":10131942183_1_0" index="0" disallow="tram rail_urban rail rail_electric rail_fast ship" speed="13.89" length="2.86" shape="1194.20,1306.28 1191.79,1307.82"/>
    </edge>
    <edge id=":10131942183_2" function="internal">
        <lane id=":10131942183_2_0" index="0" disallow="tram rail_urban rail rail_electric rail_fast ship" speed="13.89" length="1.35" shape="1191.37,1304.16 1191.71,1303.96 1191.96,1303.84 1192.21,1303.73 1192.56,1303.53"/>
    </edge>
    <edge id=":10975211386_0" function="internal">
        <lane id=":10975211386_0_0" index="0" allow="rail_urban" speed="27.78" length="3.00" shape="648.68,808.06 645.84,809.04"/>
    </edge>
    <edge id=":10975245750_0" function="internal">
        <lane id=":10975245750_0_0" index="0" allow="rail_urban" speed="27.78" length="2.89" shape="644.80,805.71 647.53,804.77"/>
    </edge>
    <edge id=":10975245750_1" function="internal">
        <lane id=":10975245750_1_0" index="0" allow="rail_urban" speed="27.78" length="2.38" shape="645.30,805.60 647.53,804.77"/>
    </edge>
    <edge id=":11107075789_0" function="internal">
        <lane id=":11107075789_0_0" index="0" allow="rail_urban" speed="27.78" length="47.70" shape="600.02,821.22 608.45,818.52 622.65,813.70 636.81,808.75 645.12,805.68"/>
    </edge>
    <edge id=":11107075789_1" function="internal">
        <lane id=":11107075789_1_0" index="0" allow="rail_urban" speed="27.78" length="47.76" shape="600.02,821.22 646.15,808.85"/>
    </edge>
    <edge id=":11107075789_2" function="internal">
        <lane id=":11107075789_2_0" index="0" allow="rail_urban" speed="27.78" length="47.87" shape="601.05,824.39 645.12,805.68"/>
    </edge>
    <edge id=":11107075789_3" function="internal">
        <lane id=":11107075789_3_0" index="0" allow="rail_urban" speed="27.78" length="47.70" shape="601.05,824.39 609.36,821.32 623.52,816.37 637.71,811.55 646.15,808.85"/>
    </edge>
    <edge id=":1212561810_0" function="internal">
        <lane id=":1212561810_0_0" index="0" disallow="tram rail_urban rail rail_electric rail_fast ship" speed="22.22" length="5.99" shape="631.02,417.80 636.97,417.14"/>
    </edge>
    <edge id=":12215692069_0" function="internal">
        <lane id=":12215692069_0_0" index="0" allow="pedestrian delivery bicycle" speed="3.65" length="4.67" shape="379.71,564.41 378.27,564.39 377.50,563.94 377.40,563.05 377.98,561.72"/>
    </edge>
    <edge id=":12227674977_0" function="internal">
        <lane id=":12227674977_0_0" index="0" disallow="tram rail_urban rail rail_electric rail_fast ship" speed="3.65" length="4.67" shape="602.91,22.33 604.34,22.11 605.17,22.44 605.41,23.30 605.06,24.70"/>
    </edge>
    <edge id=":12229411858_0" function="internal">
        <lane id=":12229411858_0_0" index="0" disallow="tram rail_urban rail rail_electric rail_fast ship" speed="8.33" length="5.00" shape="531.86,365.93 528.20,362.53"/>
    </edge>
    <edge id=":12229411858_1" function="internal">
        <lane id=":12229411858_1_0" index="0" disallow="tram rail_urban rail rail_electric rail_fast ship" speed="8.33" length="5.00" shape="530.38,360.18 534.04,363.59"/>
    </edge>
    <edge id=":12230338403_0" function="internal">
        <lane id=":12230338403_0_0" index="0" disallow="tram rail_urban rail rail_electric rail_fast ship" speed="8.33" length="4.99" shape="698.70,394.28 693.74,394.88"/>
    </edge>
    <edge id=":12230338403_1" function="internal">
        <lane id=":12230338403_1_0" index="0" disallow="tram rail_urban rail rail_electric rail_fast ship" speed="8.33" length="4.97" shape="693.37,391.70 698.31,391.11"/>
    </edge>
    <edge id=":12710921274_0" function="internal">
        <lane id=":12710921274_0_0" index="0" disallow="tram rail_urban rail rail_electric rail_fast ship" speed="13.89" length="5.00" shape="840.66,728.10 836.44,730.78"/>
    </edge>
    <edge id=":12710921274_1" function="internal">
        <lane id=":12710921274_1_0" index="0" disallow="tram rail_urban rail rail_electric rail_fast ship" speed="13.89" length="5.00" shape="834.72,728.07 838.95,725.40"/>
    </edge>
    <edge id=":12796426981_0" function="internal">
        <lane id=":12796426981_0_0" index="0" allow="rail_urban" speed="27.78" length="0.30" shape="589.24,824.84 589.52,824.74"/>
    </edge>
    <edge id=":12796426982_0" function="internal">
        <lane id=":12796426982_0_0" index="0" allow="rail_urban" speed="27.78" length="0.30" shape="590.67,828.04 590.39,828.14"/>
    </edge>
    <edge id=":12938845143_0" function="internal">
        <lane id=":12938845143_0_0" index="0" allow="pedestrian delivery bicycle" speed="12.81" length="10.22" shape="1801.49,372.95 1801.59,370.17 1802.70,368.45 1804.36,366.81 1806.10,364.29"/>
    </edge>
    <edge id=":12938845143_1" function="internal">
        <lane id=":12938845143_1_0" index="0" disallow="tram rail_urban rail rail_electric rail_fast ship" speed="6.77" length="16.41" shape="1801.49,372.95 1801.16,367.36 1802.34,364.60 1805.03,364.67 1809.24,367.58"/>
        <lane id=":12938845143_1_1" index="1" disallow="tram rail_urban rail rail_electric rail_fast ship" speed="5.62" length="9.76" shape="1801.49,372.95 1801.58,370.67 1802.75,369.67 1805.01,369.94 1808.34,371.48"/>
    </edge>
    <edge id=":12938845147_0" function="internal">
        <lane id=":12938845147_0_0" index="0" disallow="tram rail_urban rail rail_electric rail_fast ship" speed="4.00" length="2.30" shape="1801.43,378.49 1800.82,378.15 1800.42,377.75 1800.22,377.28 1800.22,376.75"/>
    </edge>
    <edge id=":12938845147_1" function="internal">
        <lane id=":12938845147_1_0" index="0" disallow="tram rail_urban rail rail_electric rail_fast ship" speed="4.45" length="6.86" shape="1807.97,370.91 1801.55,373.34"/>
    </edge>
    <edge id=":12938845154_0" function="internal">
        <lane id=":12938845154_0_0" index="0" disallow="tram rail_urban rail rail_electric rail_fast ship" speed="22.22" length="1.23" shape="1809.62,367.92 1809.91,368.17 1810.09,368.35 1810.25,368.56 1810.46,368.87"/>
        <lane id=":12938845154_0_1" index="1" disallow="tram rail_urban rail rail_electric rail_fast ship" speed="5.93" length="1.23" shape="1808.52,371.58 1807.80,370.65"/>
    </edge>
    <edge id=":13049133918_0" function="internal">
        <lane id=":13049133918_0_0" index="0" disallow="tram rail_urban rail rail_electric rail_fast ship" speed="13.89" length="2.11" shape="822.68,368.33 821.46,366.61"/>
    </edge>
    <edge id=":13050906772_0" function="internal">
        <lane id=":13050906772_0_0" index="0" disallow="tram rail_urban rail rail_electric rail_fast ship" speed="13.89" length="5.05" shape="403.62,885.46 406.33,889.72"/>
    </edge>
    <edge id=":13067361054_0" function="internal">
        <lane id=":13067361054_0_0" index="0" disallow="tram rail_urban rail rail_electric rail_fast ship" speed="13.89" length="5.00" shape="677.75,602.31 680.46,606.51"/>
    </edge>
    <edge id=":13129974582_0" function="internal">
        <lane id=":13129974582_0_0" index="0" disallow="tram rail_urban rail rail_electric rail_fast ship" speed="13.89" length="5.31" shape="760.05,676.36 755.59,679.23"/>
        <lane id=":13129974582_0_1" index="1" disallow="tram rail_urban rail rail_electric rail_fast ship" speed="13.89" length="5.31" shape="758.32,673.67 753.85,676.54"/>
    </edge>
    <edge id=":13129975408_0" function="internal">
        <lane id=":13129975408_0_0" index="0" allow="tram" speed="13.89" length="5.17" shape="754.54,668.78 750.21,671.60"/>
    </edge>
    <edge id=":13139990665_0" function="internal">
        <lane id=":13139990665_0_0" index="0" allow="tram" speed="13.89" length="3.58" shape="474.99,850.95 471.95,852.85"/>
    </edge>
    <edge id=":13143458805_0" function="internal">
        <lane id=":13143458805_0_0" index="0" allow="pedestrian delivery bicycle" speed="3.65" length="4.67" shape="705.72,806.40 704.28,806.37 703.51,805.91 703.42,805.02 704.00,803.70"/>
    </edge>
    <edge id=":13160904755_0" function="internal">
        <lane id=":13160904755_0_0" index="0" allow="tram" speed="13.89" length="5.02" shape="825.70,738.56 823.06,734.29"/>
    </edge>
    <edge id=":13198123732_0" function="internal">
        <lane id=":13198123732_0_0" index="0" disallow="tram rail_urban rail rail_electric rail_fast ship" speed="13.89" length="5.00" shape="993.53,665.97 997.74,663.27"/>
    </edge>
    <edge id=":13226729210_0" function="internal">
        <lane id=":13226729210_0_0" index="0" disallow="tram rail_urban rail rail_electric rail_fast ship" speed="13.89" length="4.87" shape="1213.36,799.08 1209.23,801.65"/>
    </edge>
    <edge id=":13226729210_1" function="internal">
        <lane id=":13226729210_1_0" index="0" disallow="tram rail_urban rail rail_electric rail_fast ship" speed="13.89" length="4.96" shape="1207.50,798.96 1211.71,796.34"/>
    </edge>
    <edge id=":13244010434_0" function="internal">
        <lane id=":13244010434_0_0" index="0" disallow="tram rail_urban rail rail_electric rail_fast ship" speed="13.89" length="5.00" shape="993.56,435.92 990.93,431.67"/>
    </edge>
    <edge id=":1661733453_0" function="internal">
        <lane id=":1661733453_0_0" index="0" disallow="tram rail_urban rail rail_electric rail_fast ship" speed="3.65" length="4.67" shape="1052.66,526.76 1052.65,525.31 1053.09,524.53 1053.97,524.41 1055.31,524.96"/>
    </edge>
    <edge id=":1661798669_0" function="internal">
        <lane id=":1661798669_0_0" index="0" disallow="tram rail_urban rail rail_electric rail_fast ship" speed="3.65" length="4.67" shape="1454.16,300.53 1454.49,299.13 1455.10,298.47 1455.99,298.57 1457.16,299.41"/>
    </edge>
    <edge id=":1661825443_0" function="internal">
        <lane id=":1661825443_0_0" index="0" disallow="tram rail_urban rail rail_electric rail_fast ship" speed="13.89" length="5.04" shape="635.80,841.71 638.53,845.94"/>
    </edge>
    <edge id=":1661825445_0" function="internal">
        <lane id=":1661825445_0_0" index="0" disallow="tram rail_urban rail rail_electric rail_fast ship" speed="13.89" length="2.98" shape="603.81,867.13 602.19,864.63"/>
    </edge>
    <edge id=":1665470756_0" function="internal">
        <lane id=":1665470756_0_0" index="0" disallow="tram rail_urban rail rail_electric rail_fast ship" speed="8.33" length="5.26" shape="1528.00,539.06 1526.96,537.89 1526.28,537.07 1525.66,536.20 1524.80,534.90"/>
    </edge>
    <edge id=":1666106939_0" function="internal">
        <lane id=":1666106939_0_0" index="0" disallow="tram rail_urban rail rail_electric rail_fast ship" speed="13.89" length="17.64" shape="370.88,506.31 361.26,491.53"/>
    </edge>
    <edge id=":1666106939_1" function="internal">
        <lane id=":1666106939_1_0" index="0" disallow="tram rail_urban rail rail_electric rail_fast ship" speed="8.11" length="14.64" shape="370.88,506.31 368.26,501.75 367.07,498.04 367.31,495.18 368.97,493.17"/>
        <lane id=":1666106939_1_1" index="1" disallow="tram rail_urban rail rail_electric rail_fast ship" speed="7.34" length="11.79" shape="370.88,506.31 369.04,502.91 368.40,500.03 368.97,497.68 370.74,495.84"/>
        <lane id=":1666106939_1_2" index="2" disallow="tram rail_urban rail rail_electric rail_fast ship" speed="6.52" length="9.10" shape="370.88,506.31 369.82,504.08 369.73,502.03 370.63,500.17 372.51,498.50"/>
    </edge>
    <edge id=":1668188168_0" function="internal">
        <lane id=":1668188168_0_0" index="0" disallow="tram rail_urban rail rail_electric rail_fast ship" speed="13.89" length="0.26" shape="1814.68,1023.61 1814.76,1023.62"/>
        <lane id=":1668188168_0_1" index="1" disallow="tram rail_urban rail rail_electric rail_fast ship" speed="13.89" length="0.26" shape="1814.09,1026.75 1814.35,1026.79"/>
        <lane id=":1668188168_0_2" index="2" disallow="tram rail_urban rail rail_electric rail_fast ship" speed="13.89" length="0.26" shape="1813.50,1029.90 1813.93,1029.97"/>
    </edge>
    <edge id=":1669164633_0" function="internal">
        <lane id=":1669164633_0_0" index="0" disallow="tram rail_urban rail rail_electric rail_fast ship" speed="3.65" length="4.67" shape="1246.35,979.73 1246.35,978.29 1246.79,977.51 1247.67,977.39 1249.01,977.94"/>
    </edge>
    <edge id=":1673476966_0" function="internal">
        <lane id=":1673476966_0_0" index="0" allow="pedestrian bicycle" speed="5.25" length="6.05" width="2.00" shape="1340.12,464.81 1338.20,464.47 1336.75,464.69 1335.79,465.46 1335.31,466.79"/>
    </edge>
    <edge id=":1673476966_1" function="internal">
        <lane id=":1673476966_1_0" index="0" disallow="tram rail_urban rail rail_electric rail_fast ship" speed="13.89" length="8.92" shape="1340.12,464.81 1331.48,462.61"/>
    </edge>
    <edge id=":1673476966_2" function="internal">
        <lane id=":1673476966_2_0" index="0" disallow="tram rail_urban rail rail_electric rail_fast ship" speed="6.04" length="2.66" shape="1340.12,464.81 1337.73,463.64"/>
    </edge>
    <edge id=":1673476966_3" function="internal">
        <lane id=":1673476966_3_0" index="0" disallow="tram rail_urban rail rail_electric rail_fast ship" speed="3.65" length="1.44" shape="1340.12,464.81 1339.18,463.71"/>
    </edge>
    <edge id=":1673476966_12" function="internal">
        <lane id=":1673476966_12_0" index="0" disallow="tram rail_urban rail rail_electric rail_fast ship" speed="6.04" length="7.80" shape="1337.73,463.64 1336.86,461.93 1337.50,459.68 1339.66,456.87"/>
    </edge>
    <edge id=":1673476966_13" function="internal">
        <lane id=":1673476966_13_0" index="0" disallow="tram rail_urban rail rail_electric rail_fast ship" speed="3.65" length="3.23" shape="1339.18,463.71 1339.01,462.83 1339.62,462.17 1340.99,461.73"/>
    </edge>
    <edge id=":1673476966_4" function="internal">
        <lane id=":1673476966_4_0" index="0" disallow="tram rail_urban rail rail_electric rail_fast ship" speed="8.09" length="8.35" shape="1332.11,459.48 1334.18,459.64 1336.13,459.26 1337.95,458.34 1339.66,456.87"/>
    </edge>
    <edge id=":1673476966_5" function="internal">
        <lane id=":1673476966_5_0" index="0" disallow="tram rail_urban rail rail_electric rail_fast ship" speed="13.89" length="9.16" shape="1332.11,459.48 1340.99,461.73"/>
    </edge>
    <edge id=":1673476966_6" function="internal">
        <lane id=":1673476966_6_0" index="0" allow="pedestrian bicycle" speed="6.58" length="2.39" width="2.00" shape="1332.11,459.48 1333.88,460.25 1334.16,460.62"/>
    </edge>
    <edge id=":1673476966_7" function="internal">
        <lane id=":1673476966_7_0" index="0" disallow="tram rail_urban rail rail_electric rail_fast ship" speed="3.65" length="1.44" shape="1332.11,459.48 1333.13,460.50"/>
    </edge>
    <edge id=":1673476966_14" function="internal">
        <lane id=":1673476966_14_0" index="0" allow="pedestrian bicycle" speed="6.58" length="6.51" width="2.00" shape="1334.16,460.62 1335.00,461.73 1335.48,463.91 1335.31,466.79"/>
    </edge>
    <edge id=":1673476966_15" function="internal">
        <lane id=":1673476966_15_0" index="0" disallow="tram rail_urban rail rail_electric rail_fast ship" speed="3.65" length="3.23" shape="1333.13,460.50 1333.36,461.37 1332.81,462.07 1331.48,462.61"/>
    </edge>
    <edge id=":1673476966_8" function="internal">
        <lane id=":1673476966_8_0" index="0" allow="pedestrian bicycle" speed="4.87" length="4.81" width="2.00" shape="1333.33,466.48 1333.41,464.97 1333.13,463.82 1332.48,463.04 1331.48,462.61"/>
    </edge>
    <edge id=":1673476966_9" function="internal">
        <lane id=":1673476966_9_0" index="0" allow="pedestrian bicycle" speed="9.72" length="11.78" width="2.00" shape="1333.33,466.48 1334.15,463.41 1335.49,461.19 1337.32,459.21 1339.66,456.87"/>
    </edge>
    <edge id=":1673476966_10" function="internal">
        <lane id=":1673476966_10_0" index="0" allow="pedestrian bicycle" speed="6.59" length="10.60" width="2.00" shape="1333.33,466.48 1334.19,463.70 1335.75,461.98 1338.02,461.32 1340.99,461.73"/>
    </edge>
    <edge id=":1673476966_11" function="internal">
        <lane id=":1673476966_11_0" index="0" allow="pedestrian bicycle" speed="2.89" length="2.92" width="2.00" shape="1333.33,466.48 1333.94,465.82 1334.47,465.65 1334.93,465.97 1335.31,466.79"/>
    </edge>
    <edge id=":1684270507_0" function="internal">
        <lane id=":1684270507_0_0" index="0" disallow="tram rail_urban rail rail_electric rail_fast ship" speed="7.03" length="12.14" shape="677.85,1145.18 676.36,1143.25 674.11,1142.65 671.10,1143.36 667.34,1145.41"/>
    </edge>
    <edge id=":1684270507_1" function="internal">
        <lane id=":1684270507_1_0" index="0" disallow="tram rail_urban rail rail_electric rail_fast ship" speed="13.89" length="15.39" shape="677.85,1145.18 675.88,1142.50 673.17,1140.61 670.04,1138.38 666.85,1134.70"/>
        <lane id=":1684270507_1_1" index="1" disallow="tram rail_urban rail rail_electric rail_fast ship" speed="13.89" length="15.39" shape="677.85,1145.18 676.29,1142.21 674.47,1139.67 672.26,1136.83 669.53,1132.95"/>
        <lane id=":1684270507_1_2" index="2" disallow="tram rail_urban rail rail_electric rail_fast ship" speed="13.89" length="15.39" shape="677.85,1145.18 676.72,1141.95 675.83,1138.84 674.55,1135.41 672.21,1131.21"/>
        <lane id=":1684270507_1_3" index="3" disallow="tram rail_urban rail rail_electric rail_fast ship" speed="13.89" length="15.39" shape="677.85,1145.18 677.17,1141.73 677.27,1138.11 676.92,1134.10 674.89,1129.46"/>
    </edge>
    <edge id=":1684270507_5" function="internal">
        <lane id=":1684270507_5_0" index="0" disallow="tram rail_urban rail rail_electric rail_fast ship" speed="9.72" length="20.74" shape="684.41,1133.68 667.34,1145.41"/>
        <lane id=":1684270507_5_1" index="1" disallow="tram rail_urban rail rail_electric rail_fast ship" speed="9.72" length="20.74" shape="682.63,1131.03 665.50,1142.79"/>
    </edge>
    <edge id=":1684270507_7" function="internal">
        <lane id=":1684270507_7_0" index="0" disallow="tram rail_urban rail rail_electric rail_fast ship" speed="7.29" length="11.75" shape="682.63,1131.03 679.23,1132.89 676.36,1133.54 674.02,1132.98 672.21,1131.21"/>
        <lane id=":1684270507_7_1" index="1" disallow="tram rail_urban rail rail_electric rail_fast ship" speed="6.47" length="9.03" shape="682.63,1131.03 680.39,1132.11 678.36,1132.21 676.52,1131.32 674.89,1129.46"/>
    </edge>
    <edge id=":1684270509_0" function="internal">
        <lane id=":1684270509_0_0" index="0" disallow="tram rail_urban rail rail_electric rail_fast ship" speed="27.78" length="0.30" shape="516.45,395.28 516.70,395.11"/>
        <lane id=":1684270509_0_1" index="1" disallow="tram rail_urban rail rail_electric rail_fast ship" speed="27.78" length="0.30" shape="518.22,397.94 518.47,397.78"/>
        <lane id=":1684270509_0_2" index="2" disallow="tram rail_urban rail rail_electric rail_fast ship" speed="27.78" length="0.30" shape="519.99,400.61 520.24,400.44"/>
    </edge>
    <edge id=":1691958409_0" function="internal">
        <lane id=":1691958409_0_0" index="0" allow="pedestrian bicycle" speed="4.35" length="5.48" width="2.00" shape="1294.74,549.04 1293.68,547.61 1292.76,547.17 1291.96,547.74 1291.30,549.30"/>
    </edge>
    <edge id=":1691958409_1" function="internal">
        <lane id=":1691958409_1_0" index="0" allow="pedestrian delivery bicycle" speed="5.56" length="7.27" shape="1294.74,549.04 1291.11,542.75"/>
    </edge>
    <edge id=":1691958409_2" function="internal">
        <lane id=":1691958409_2_0" index="0" allow="pedestrian delivery bicycle" speed="3.65" length="4.67" shape="1294.74,549.04 1294.83,547.60 1295.32,546.85 1296.22,546.80 1297.51,547.43"/>
    </edge>
    <edge id=":1691958409_3" function="internal">
        <lane id=":1691958409_3_0" index="0" allow="pedestrian delivery bicycle" speed="5.56" length="7.23" shape="1293.90,541.17 1297.51,547.43"/>
    </edge>
    <edge id=":1691958409_4" function="internal">
        <lane id=":1691958409_4_0" index="0" allow="pedestrian bicycle" speed="5.56" length="8.58" width="2.00" shape="1293.90,541.17 1293.74,542.67 1292.89,545.20 1291.89,547.75 1291.30,549.30"/>
    </edge>
    <edge id=":1691958409_5" function="internal">
        <lane id=":1691958409_5_0" index="0" allow="pedestrian delivery bicycle" speed="3.65" length="4.67" shape="1293.90,541.17 1293.79,542.61 1293.29,543.35 1292.40,543.40 1291.11,542.75"/>
    </edge>
    <edge id=":1691958409_6" function="internal">
        <lane id=":1691958409_6_0" index="0" allow="pedestrian bicycle" speed="5.56" length="5.50" width="2.00" shape="1289.60,547.97 1290.02,546.87 1290.65,545.33 1291.12,543.80 1291.11,542.75"/>
    </edge>
    <edge id=":1691958409_7" function="internal">
        <lane id=":1691958409_7_0" index="0" allow="pedestrian bicycle" speed="5.56" length="12.57" width="2.00" shape="1289.60,547.97 1291.12,544.40 1292.94,543.12 1295.07,544.13 1297.51,547.43"/>
    </edge>
    <edge id=":1691958409_8" function="internal">
        <lane id=":1691958409_8_0" index="0" allow="pedestrian bicycle" speed="2.96" length="3.15" width="2.00" shape="1289.60,547.97 1290.52,547.67 1291.11,547.79 1291.37,548.33 1291.30,549.30"/>
    </edge>
    <edge id=":1691958411_0" function="internal">
        <lane id=":1691958411_0_0" index="0" allow="pedestrian bicycle" speed="4.74" length="4.58" width="2.00" shape="1305.21,622.84 1306.09,623.93 1307.02,624.52 1308.00,624.62 1309.02,624.24"/>
    </edge>
    <edge id=":1691958411_1" function="internal">
        <lane id=":1691958411_1_0" index="0" allow="pedestrian bicycle" speed="2.89" length="2.92" width="2.00" shape="1305.21,622.84 1305.19,623.74 1304.91,624.23 1304.36,624.29 1303.53,623.93"/>
    </edge>
    <edge id=":1691958411_2" function="internal">
        <lane id=":1691958411_2_0" index="0" allow="pedestrian bicycle" speed="4.82" length="4.54" width="2.00" shape="1303.08,627.88 1303.91,627.14 1304.26,626.23 1304.13,625.16 1303.53,623.93"/>
    </edge>
    <edge id=":1691958411_3" function="internal">
        <lane id=":1691958411_3_0" index="0" disallow="tram rail_urban rail rail_electric rail_fast ship" speed="13.89" length="6.97" shape="1303.08,627.88 1309.02,624.24"/>
    </edge>
    <edge id=":1694685795_0" function="internal">
        <lane id=":1694685795_0_0" index="0" disallow="tram rail_urban rail rail_electric rail_fast ship" speed="3.65" length="4.67" shape="1465.05,830.90 1466.07,829.88 1466.94,829.65 1467.64,830.20 1468.19,831.53"/>
    </edge>
    <edge id=":1695426137_0" function="internal">
        <lane id=":1695426137_0_0" index="0" allow="pedestrian bicycle" speed="6.46" length="6.35" width="2.00" shape="1276.70,466.28 1274.90,464.88 1273.38,463.99 1272.12,463.62 1271.13,463.77"/>
    </edge>
    <edge id=":1695426137_1" function="internal">
        <lane id=":1695426137_1_0" index="0" allow="pedestrian bicycle" speed="6.05" length="11.36" width="2.00" shape="1276.70,466.28 1274.23,463.59 1273.53,461.32 1274.59,459.46 1277.42,458.00"/>
    </edge>
    <edge id=":1695426137_2" function="internal">
        <lane id=":1695426137_2_0" index="0" allow="pedestrian bicycle" speed="2.89" length="2.92" width="2.00" shape="1276.70,466.28 1276.46,465.41 1276.60,464.87 1277.11,464.66 1278.01,464.77"/>
    </edge>
    <edge id=":1695426137_3" function="internal">
        <lane id=":1695426137_3_0" index="0" allow="pedestrian bicycle" speed="4.44" length="5.14" width="2.00" shape="1278.44,461.04 1277.13,461.70 1276.62,462.54 1276.91,463.57 1278.01,464.77"/>
    </edge>
    <edge id=":1695426137_4" function="internal">
        <lane id=":1695426137_4_0" index="0" disallow="tram rail_urban rail rail_electric rail_fast ship" speed="13.89" length="7.81" shape="1278.44,461.04 1276.23,461.75 1274.72,462.24 1273.24,462.81 1271.13,463.77"/>
    </edge>
    <edge id=":1695426137_5" function="internal">
        <lane id=":1695426137_5_0" index="0" disallow="tram rail_urban rail rail_electric rail_fast ship" speed="13.89" length="8.20" shape="1269.75,460.89 1271.96,459.87 1273.51,459.27 1275.10,458.75 1277.42,458.00"/>
    </edge>
    <edge id=":1695426137_6" function="internal">
        <lane id=":1695426137_6_0" index="0" allow="pedestrian bicycle" speed="7.90" length="1.80" width="2.00" shape="1269.75,460.89 1271.17,460.69 1271.52,460.80"/>
    </edge>
    <edge id=":1695426137_7" function="internal">
        <lane id=":1695426137_7_0" index="0" allow="pedestrian bicycle" speed="7.90" length="7.67" width="2.00" shape="1271.52,460.80 1273.02,461.28 1275.30,462.64 1278.01,464.77"/>
    </edge>
    <edge id=":1704484861_0" function="internal">
        <lane id=":1704484861_0_0" index="0" disallow="tram rail_urban rail rail_electric rail_fast ship" speed="13.89" length="0.23" shape="340.88,1083.90 341.07,1083.78"/>
    </edge>
    <edge id=":1707879498_0" function="internal">
        <lane id=":1707879498_0_0" index="0" disallow="tram rail_urban rail rail_electric rail_fast ship" speed="13.89" length="18.40" shape="1355.33,418.60 1353.40,414.80 1350.63,410.74 1347.51,406.91 1344.54,403.82"/>
    </edge>
    <edge id=":1707879498_1" function="internal">
        <lane id=":1707879498_1_0" index="0" disallow="tram rail_urban rail rail_electric rail_fast ship" speed="5.04" length="9.92" shape="1355.33,418.60 1355.03,415.65 1355.95,413.05 1357.60,411.76 1359.48,412.70"/>
    </edge>
    <edge id=":1707879498_2" function="internal">
        <lane id=":1707879498_2_0" index="0" disallow="tram rail_urban rail rail_electric rail_fast ship" speed="13.89" length="17.97" shape="1357.85,415.84 1355.00,412.77 1351.43,409.62 1347.73,406.58 1344.54,403.82"/>
    </edge>
    <edge id=":1707879498_3" function="internal">
        <lane id=":1707879498_3_0" index="0" disallow="tram rail_urban rail rail_electric rail_fast ship" speed="3.78" length="0.71" shape="1357.85,415.84 1357.51,415.22"/>
    </edge>
    <edge id=":1707879498_4" function="internal">
        <lane id=":1707879498_4_0" index="0" disallow="tram rail_urban rail rail_electric rail_fast ship" speed="3.78" length="4.45" shape="1357.51,415.22 1357.08,414.45 1357.09,413.46 1357.89,412.88 1359.48,412.70"/>
    </edge>
    <edge id=":1708700355_0" function="internal">
        <lane id=":1708700355_0_0" index="0" allow="pedestrian delivery bicycle" speed="3.65" length="4.67" shape="1327.04,595.64 1327.02,597.08 1326.57,597.85 1325.68,597.95 1324.36,597.38"/>
    </edge>
    <edge id=":1710843417_0" function="internal">