<?xml version="1.0" encoding="UTF-8"?>

<!-- generated on 2026-04-12 22:52:54.293111 by randomTrips.py UNKNOWN
<configuration>
    <net-file value="network.net.xml"/>
    <route-file value="routes.rou.xml"/>
    <validate value="True"/>
    <end value="1000.0"/>
</configuration>
-->

<!-- generated on 2026-04-12 22:52:54 by Eclipse SUMO duarouter Version 1.18.0
<configuration xmlns:xsi="http://www.w3.org/2001/XMLSchema-instance" xsi:noNamespaceSchemaLocation="http://sumo.dlr.de/xsd/duarouterConfiguration.xsd">

    <input>
        <net-file value="network.net.xml"/>
        <route-files value="trips.trips.xml"/>
    </input>

    <output>
        <output-file value="trips.trips.xml.tmp"/>
        <alternatives-output value="NUL"/>
        <write-trips value="true"/>
    </output>

    <time>
        <begin value="0"/>
        <end value="1000.0"/>
    </time>

    <report>
        <no-warnings value="true"/>
        <ignore-errors value="true"/>
        <no-step-log value="true"/>
    </report>

</configuration>
-->

<routes xmlns:xsi="http://www.w3.org/2001/XMLSchema-instance" xsi:noNamespaceSchemaLocation="http://sumo.dlr.de/xsd/routes_file.xsd">
    <trip id="0" depart="0.00" from="7381081#4" to="-159254426#2"/>
    <trip id="1" depart="1.00" from="-7384300#0" to="-7383330#2"/>
    <trip id="2" depart="2.00" from="7383113#2" to="7382781#0"/>
    <trip id="3" depart="3.00" from="7384586#4" to="-465058626#1"/>
    <trip id="4" depart="4.00" from="1270857682" to="-160237519#1"/>
    <trip id="6" depart="6.00" from="-152798707#1" to="-7383221#0"/>
    <trip id="7" depart="7.00" from="7381367#3" to="37546755#4"/>
    <trip id="8" depart="8.00" from="-7383301#0" to="511452724#1"/>
    <trip id="9" depart="9.00" from="7384122#1" to="-1149134108#3"/>
    <trip id="11" depart="11.00" from="-7384886#4" to="-7382899#1"/>
    <trip id="13" depart="13.00" from="-465058625#4" to="-482997281#5"/>
    <trip id="14" depart="14.00" from="7384310#1" to="60009452#3"/>
    <trip id="15" depart="15.00" from="7383489#1" to="7383094#3"/>
    <trip id="16" depart="16.00" from="35937897#0" to="738596215#5"/>
    <trip id="18" depart="18.00" from="7384201#1" to="707009260#0"/>
    <trip id="19" depart="19.00" from="7384405#0" to="47454644#4"/>
    <trip id="20" depart="20.00" from="7383016#3" to="-190590640#4"/>
    <trip id="21" depart="21.00" from="-7383330#1" to="-7384364#1"/>
    <trip id="22" depart="22.00" from="-330165531" to="-7383365"/>
    <trip id="23" depart="23.00" from="-482997282#1" to="-7384309#2"/>
    <trip id="24" depart="24.00" from="7381028#5" to="-7385022#1"/>
    <trip id="26" depart="26.00" from="-7384201#1" to="7384987#2"/>
    <trip id="28" depart="28.00" from="-7383042#2" to="7383094#2"/>
    <trip id="29" depart="29.00" from="-7383016#5" to="-738596215#0"/>
    <trip id="30" depart="30.00" from="871208700" to="7381112#2"/>
    <trip id="31" depart="31.00" from="426530259#0" to="7382862#1"/>
    <trip id="32" depart="32.00" from="7384309#10" to="7383304#1"/>
    <trip id="33" depart="33.00" from="-7383339#1" to="-160237536#10"/>
    <trip id="34" depart="34.00" from="-7384469#5" to="-7384228#1"/>
    <trip id="35" depart="35.00" from="-7383259#1" to="7385015#7"/>
    <trip id="36" depart="36.00" from="7384453#1" to="-7384469#7"/>
    <trip id="37" depart="37.00" from="7381685" to="1021281592#1"/>
    <trip id="38" depart="38.00" from="7384887#1" to="160237519#1"/>
    <trip id="39" depart="39.00" from="-7384198#0" to="-7384139#3"/>
    <trip id="40" depart="40.00" from="443374613#1" to="-7384201#0"/>
    <trip id="41" depart="41.00" from="482997282#6" to="7384636#7"/>
    <trip id="42" depart="42.00" from="1021281593#2" to="-7383301#7"/>
    <trip id="43" depart="43.00" from="932943735#0" to="290636862#5"/>
    <trip id="44" depart="44.00" from="-465058623" to="-190590640#7"/>
    <trip id="45" depart="45.00" from="-60009452#2" to="707009276"/>
    <trip id="46" depart="46.00" from="7383411#2" to="1270857685"/>
    <trip id="47" depart="47.00" from="-290636862#5" to="-738596215#7"/>
    <trip id="48" depart="48.00" from="93220776#0" to="326103965#16"/>
    <trip id="49" depart="49.00" from="7385159#1" to="7384381#2"/>
    <trip id="50" depart="50.00" from="-118925038#8" to="7383057#0"/>
    <trip id="51" depart="51.00" from="7382846#0" to="328244230#5"/>
    <trip id="52" depart="52.00" from="-7384201#1" to="7381112#4"/>
    <trip id="53" depart="53.00" from="-640548019#0" to="1436127903"/>
    <trip id="54" depart="54.00" from="160237515#7" to="7385032#1"/>
    <trip id="55" depart="55.00" from="7384453#0" to="-7384201#1"/>
    <trip id="56" depart="56.00" from="27718618#1" to="-7383096#0"/>
    <trip id="57" depart="57.00" from="7384886#4" to="7384441#0"/>
    <trip id="58" depart="58.00" from="-7384408" to="7381081#3"/>
    <trip id="59" depart="59.00" from="680090994" to="-7382862#13"/>
    <trip id="60" depart="60.00" from="7383272#0" to="330165528#1"/>
    <trip id="61" depart="61.00" from="7383344" to="326103965#5"/>
    <trip id="63" depart="63.00" from="-144377976#2" to="7384938#0"/>
    <trip id="64" depart="64.00" from="7384455#1" to="7384203#1"/>
    <trip id="65" depart="65.00" from="-7384447#1" to="-30025947#2"/>
    <trip id="66" depart="66.00" from="7384454#2" to="7385027#2"/>
    <trip id="67" depart="67.00" from="-426530259#0" to="224458064#4"/>
    <trip id="68" depart="68.00" from="-32011213#1" to="7383259#4"/>
    <trip id="69" depart="69.00" from="7383287" to="-7381461#3"/>
    <trip id="70" depart="70.00" from="190590640#6" to="386883299#0"/>
    <trip id="71" depart="71.00" from="-7384198#0" to="7384443#1"/>
    <trip id="73" depart="73.00" from="375495397#0" to="7383094#3"/>
    <trip id="74" depart="74.00" from="-7383206#1" to="-7384469#0"/>
    <trip id="75" depart="75.00" from="91708895#7" to="7381388#2"/>
    <trip id="76" depart="76.00" from="144377976#2" to="30025947#2"/>
    <trip id="77" depart="77.00" from="-7381081#2" to="-7383339#2"/>
    <trip id="78" depart="78.00" from="-7384872" to="511321433#2"/>
    <trip id="79" depart="79.00" from="-7383339#3" to="-7383301#9"/>
    <trip id="80" depart="80.00" from="-32011213#5" to="707014977#3"/>
    <trip id="81" depart="81.00" from="-7383339#0" to="7384775#1"/>
    <trip id="82" depart="82.00" from="7384381#1" to="-330165528#2"/>
    <trip id="83" depart="83.00" from="-7383354#6" to="7382701"/>
    <trip id="84" depart="84.00" from="-7383262#3" to="-7382680#1"/>
    <trip id="86" depart="86.00" from="190590623#1" to="7383353"/>
    <trip id="87" depart="87.00" from="7383489#2" to="-7383122#2"/>
    <trip id="88" depart="88.00" from="-46590527#0" to="1279356632#1"/>
    <trip id="89" depart="89.00" from="1270857690" to="165487116#1"/>
    <trip id="90" depart="90.00" from="7383096#0" to="7382726#0"/>
    <trip id="91" depart="91.00" from="799454731#0" to="-482997282#3"/>
    <trip id="92" depart="92.00" from="1091280604#1" to="-7384886#0"/>
    <trip id="93" depart="93.00" from="7384405#0" to="-7384139#8"/>
    <trip id="94" depart="94.00" from="-7383113#2" to="152798711#0"/>
    <trip id="95" depart="95.00" from="1270857682" to="-7384309#3"/>
    <trip id="96" depart="96.00" from="-7384139#1" to="7384932#4"/>
    <trip id="97" depart="97.00" from="146387544#1" to="7384390#0"/>
    <trip id="98" depart="98.00" from="407033663#0" to="-27268752#0"/>
    <trip id="99" depart="99.00" from="946586128#2" to="7384279"/>
    <trip id="100" depart="100.00" from="7385090" to="7384934#3"/>
    <trip id="101" depart="101.00" from="7384323#0" to="-7383040#2"/>
    <trip id="102" depart="102.00" from="224504147#0" to="-7383282#2"/>
    <trip id="103" depart="103.00" from="1037347906#0" to="-30025947#4"/>
    <trip id="105" depart="105.00" from="-7384198#0" to="7383346#9"/>
    <trip id="106" depart="106.00" from="160237519#1" to="1270857690"/>
    <trip id="108" depart="108.00" from="41399965#0" to="7383050#1"/>
    <trip id="109" depart="109.00" from="-7382862#10" to="-7384420#1"/>
    <trip id="110" depart="110.00" from="7385089" to="47454645#2"/>
    <trip id="111" depart="111.00" from="386870305" to="7383145#0"/>
    <trip id="112" depart="112.00" from="-255650553" to="482997282#4"/>
    <trip id="113" depart="113.00" from="290636862#1" to="7384348#1"/>
    <trip id="114" depart="114.00" from="-7382862#7" to="7385062#0"/>
    <trip id="115" depart="115.00" from="-35937897#0" to="-7383113#2"/>
    <trip id="116" depart="116.00" from="538611460#0" to="7382732#3"/>
    <trip id="117" depart="117.00" from="-7383354#0" to="-7381112#2"/>
    <trip id="118" depart="118.00" from="7384581" to="-7384139#2"/>
    <trip id="119" depart="119.00" from="534224652" to="707009261#0"/>
    <trip id="120" depart="120.00" from="1269325981" to="482997282#3"/>
    <trip id="121" depart="121.00" from="326103965#15" to="7384973#2"/>
    <trip id="122" depart="122.00" from="-7383221#1" to="7383042#3"/>
    <trip id="123" depart="123.00" from="-7383365" to="1021281592#1"/>
    <trip id="124" depart="124.00" from="7382724#0" to="-7384438#3"/>
    <trip id="125" depart="125.00" from="-7384469#7" to="7383221#1"/>
    <trip id="126" depart="126.00" from="-326103965#11" to="160237515#8"/>
    <trip id="127" depart="127.00" from="946586128#0" to="93220776#0"/>
    <trip id="128" depart="128.00" from="-326103965#14" to="-7383282#1"/>
    <trip id="129" depart="129.00" from="-7384198#0" to="7384967#1"/>
    <trip id="130" depart="130.00" from="7384467" to="7384457"/>
    <trip id="132" depart="132.00" from="7384228#0" to="7383012#2"/>
    <trip id="133" depart="133.00" from="682523494#2" to="817903908"/>
    <trip id="134" depart="134.00" from="7381479#0" to="-118925038#11"/>
    <trip id="135" depart="135.00" from="7384144#4" to="-7384438#2"/>
    <trip id="136" depart="136.00" from="7382682#1" to="7385002#1"/>
    <trip id="137" depart="137.00" from="-7382680#0" to="-7381028#6"/>
    <trip id="138" depart="138.00" from="-520384956" to="402970039#1"/>
    <trip id="139" depart="139.00" from="-7384279" to="60010092#0"/>
    <trip id="140" depart="140.00" from="7383050#1" to="-7383231#1"/>
    <trip id="141" depart="141.00" from="7381028#0" to="-7384205#0"/>
    <trip id="142" depart="142.00" from="224504151#0" to="7384775#1"/>
    <trip id="143" depart="143.00" from="7384309#7" to="-481276167"/>
    <trip id="144" depart="144.00" from="1270857690" to="-7384309#10"/>
    <trip id="145" depart="145.00" from="-1091280604#2" to="7383301#13"/>
    <trip id="146" depart="146.00" from="7381028#8" to="-7384198#1"/>
    <trip id="147" depart="147.00" from="7383122#2" to="402936557#2"/>
    <trip id="148" depart="148.00" from="1279356624#1" to="-118925038#5"/>
    <trip id="149" depart="149.00" from="-326103965#4" to="7384469#6"/>
    <trip id="151" depart="151.00" from="7384250" to="482997281#5"/>
    <trip id="152" depart="152.00" from="-7382802#1" to="-7381461#1"/>
    <trip id="153" depart="153.00" from="-7384448#0" to="7384637"/>
    <trip id="154" depart="154.00" from="7383417#0" to="7384381#2"/>
    <trip id="155" depart="155.00" from="7384636#4" to="-7383269"/>
    <trip id="156" depart="156.00" from="-7384139#1" to="-511453532#1"/>
    <trip id="157" depart="157.00" from="7383346#2" to="7384469#8"/>
    <trip id="158" depart="158.00" from="1149134109#0" to="707009264"/>
    <trip id="159" depart="159.00" from="-7382862#10" to="7384949#0"/>
    <trip id="160" depart="160.00" from="7384420#0" to="738599404#6"/>
    <trip id="161" depart="161.00" from="7384126#2" to="7384469#2"/>
    <trip id="162" depart="162.00" from="-152798703#0" to="7383111#2"/>
    <trip id="164" depart="164.00" from="7383457#4" to="7384405#4"/>
    <trip id="165" depart="165.00" from="7384126#2" to="-7384219"/>
    <trip id="166" depart="166.00" from="7383393#3" to="-640548019#0"/>
    <trip id="167" depart="167.00" from="7384446#0" to="7384370"/>
    <trip id="168" depart="168.00" from="-7383301#2" to="7384139#8"/>
    <trip id="169" depart="169.00" from="160237536#5" to="-7384447#2"/>
    <trip id="170" depart="170.00" from="7383416#1" to="-7383346#2"/>
    <trip id="171" depart="171.00" from="-152798700#0" to="-7383130#2"/>
    <trip id="172" depart="172.00" from="-7384636#5" to="7384405#5"/>
    <trip id="174" depart="174.00" from="7381112#6" to="1038216743"/>
    <trip id="175" depart="175.00" from="775235607#0" to="328244227#4"/>
    <trip id="176" depart="176.00" from="7384999#1" to="-7381028#6"/>
    <trip id="177" depart="177.00" from="7385101" to="-7383096#0"/>
    <trip id="180" depart="180.00" from="7383094#3" to="-7384469#5"/>
    <trip id="181" depart="181.00" from="65400073" to="29294260"/>
    <trip id="182" depart="182.00" from="-738603570" to="47454644#2"/>
    <trip id="183" depart="183.00" from="-7384144#4" to="7383022#4"/>
    <trip id="184" depart="184.00" from="-1037347906#1" to="7384934#1"/>
    <trip id="185" depart="185.00" from="37546755#4" to="7383052#1"/>
    <trip id="186" depart="186.00" from="7383122#4" to="7382704#4"/>
    <trip id="187" depart="187.00" from="-7385002#2" to="-330165528#0"/>
    <trip id="188" depart="188.00" from="7382685#2" to="-7384637"/>
    <trip id="189" depart="189.00" from="-7384469#2" to="7384310#1"/>
    <trip id="190" depart="190.00" from="7383057#1" to="-7384441#0"/>
    <trip id="191" depart="191.00" from="-7384453#1" to="1149134110#2"/>
    <trip id="192" depart="192.00" from="1091280604#0" to="-7384408"/>
    <trip id="194" depart="194.00" from="7385002#1" to="7382781#1"/>
    <trip id="195" depart="195.00" from="7384652#3" to="707000453"/>
    <trip id="196" depart="196.00" from="-7384430#1" to="38245925"/>
    <trip id="197" depart="197.00" from="-1037347904#0" to="-7384353#1"/>
    <trip id="198" depart="198.00" from="1279356627#0" to="482997281#0"/>
    <trip id="199" depart="199.00" from="7381479#1" to="160237536#6"/>
    <trip id="200" depart="200.00" from="146128071#1" to="-7383282#2"/>
    <trip id="202" depart="202.00" from="7383417#0" to="-7383052#0"/>
    <trip id="203" depart="203.00" from="-41399961#1" to="29749956#2"/>
    <trip id="205" depart="205.00" from="7384144#7" to="7383208#1"/>
    <trip id="206" depart="206.00" from="7382726#1" to="-7383339#2"/>
    <trip id="207" depart="207.00" from="-7383137" to="-159254426#1"/>
    <trip id="208" depart="208.00" from="-7383417#1" to="189535193#2"/>
    <trip id="209" depart="209.00" from="7384336#0" to="-35937898#0"/>
    <trip id="210" depart="210.00" from="118925038#6" to="707014976#0"/>
    <trip id="211" depart="211.00" from="-7383122#0" to="7382937#0"/>
    <trip id="212" depart="212.00" from="25221021#3" to="-7384126#1"/>
    <trip id="213" depart="213.00" from="7381727" to="-1149134108#0"/>
    <trip id="214" depart="214.00" from="7383221#3" to="7383301#10"/>
    <trip id="215" depart="215.00" from="-511453532#2" to="1279356622#0"/>
    <trip id="216" depart="216.00" from="-7383057#2" to="7385049#1"/>
    <trip id="217" depart="217.00" from="32011213#6" to="-27268752#0"/>
    <trip id="218" depart="218.00" from="-7384126#2" to="7384310#2"/>
    <trip id="219" depart="219.00" from="160237528#1" to="7383441#2"/>
    <trip id="221" depart="221.00" from="538611460#2" to="7385027#9"/>
    <trip id="222" depart="222.00" from="7384586#2" to="682523494#3"/>
    <trip id="223" depart="223.00" from="7383057#0" to="27718618#1"/>
    <trip id="224" depart="224.00" from="7384205#0" to="38245925"/>
    <trip id="225" depart="225.00" from="7384636#11" to="7383122#3"/>
    <trip id="226" depart="226.00" from="190590640#5" to="-7384179#1"/>
    <trip id="227" depart="227.00" from="-7383441#4" to="7381081#0"/>
    <trip id="228" depart="228.00" from="7383287" to="32011213#0"/>
    <trip id="229" depart="229.00" from="707009272" to="-7384300#6"/>
    <trip id="230" depart="230.00" from="-326594002#0" to="-7384342"/>
    <trip id="231" depart="231.00" from="-7384250" to="-7384581"/>
    <trip id="232" depart="232.00" from="375495399#0" to="-7382704#0"/>
    <trip id="233" depart="233.00" from="-7383344" to="7382923"/>
    <trip id="234" depart="234.00" from="7383022#10" to="-326103965#13"/>
    <trip id="235" depart="235.00" from="1149134109#2" to="35937897#0"/>
    <trip id="236" depart="236.00" from="118925046#1" to="-7383259#3"/>
    <trip id="238" depart="238.00" from="482997282#5" to="7382931"/>
    <trip id="239" depart="239.00" from="7384364#0" to="7383279"/>
    <trip id="242" depart="242.00" from="7384348#3" to="7385032#0"/>
    <trip id="243" depart="243.00" from="1269325981" to="7383137"/>
    <trip id="244" depart="244.00" from="402936557#3" to="60009452#2"/>
    <trip id="245" depart="245.00" from="-7383301#0" to="-7383301#8"/>
    <trip id="248" depart="248.00" from="1095951056#0" to="-7383031#1"/>
    <trip id="249" depart="249.00" from="187196049#0" to="-7381461#1"/>
    <trip id="250" depart="250.00" from="707009265#3" to="-160237515#4"/>
    <trip id="251" depart="251.00" from="-93281471#1" to="443374613#1"/>
    <trip id="252" depart="252.00" from="-152798710" to="7381115#4"/>
    <trip id="253" depart="253.00" from="-7382682#1" to="160237536#10"/>
    <trip id="254" depart="254.00" from="-189535193#3" to="-7385064#9"/>
    <trip id="255" depart="255.00" from="-7383259#2" to="-7384636#2"/>
    <trip id="256" depart="256.00" from="7383262#4" to="-7385064#9"/>
    <trip id="257" depart="257.00" from="7383229#1" to="7384205#0"/>
    <trip id="258" depart="258.00" from="-7384139#7" to="-443156105"/>
    <trip id="259" depart="259.00" from="-144377976#2" to="330165528#1"/>
    <trip id="260" depart="260.00" from="990055230" to="-7384932#14"/>
    <trip id="261" depart="261.00" from="7381388#1" to="7383346#0"/>
    <trip id="262" depart="262.00" from="7381440#3" to="7383229#1"/>
    <trip id="265" depart="265.00" from="-7381118#1" to="7382704#0"/>
    <trip id="266" depart="266.00" from="465058625#3" to="-7383301#3"/>
    <trip id="267" depart="267.00" from="7382998" to="7383282#2"/>
    <trip id="268" depart="268.00" from="-7383022#9" to="65400073"/>
    <trip id="269" depart="269.00" from="7383206#2" to="-7381028#4"/>
    <trip id="270" depart="270.00" from="7384144#9" to="7385064#5"/>
    <trip id="272" depart="272.00" from="-7384457" to="7382781#1"/>
    <trip id="274" depart="274.00" from="7383042#2" to="-41399960#0"/>
    <trip id="275" depart="275.00" from="7382913#1" to="707009274"/>
    <trip id="276" depart="276.00" from="-482997282#3" to="7383301#3"/>
    <trip id="277" depart="277.00" from="7384336#1" to="552196878#5"/>
    <trip id="278" depart="278.00" from="-7381081#2" to="799454732#1"/>
    <trip id="279" depart="279.00" from="7383354#0" to="-7384932#0"/>
    <trip id="280" depart="280.00" from="1279356626#0" to="-7385038#6"/>
    <trip id="281" depart="281.00" from="29294260" to="-7384886#4"/>
    <trip id="282" depart="282.00" from="7384323#2" to="7384147#1"/>
    <trip id="283" depart="283.00" from="-511452725#1" to="7385062#0"/>
    <trip id="284" depart="284.00" from="7381028#4" to="7384198#0"/>
    <trip id="285" depart="285.00" from="7383022#13" to="143862681#1"/>
    <trip id="286" depart="286.00" from="7383104#3" to="7385064#6"/>
    <trip id="288" depart="288.00" from="37546755#0" to="200404876#5"/>
    <trip id="290" depart="290.00" from="-7384205#0" to="7384342"/>
    <trip id="291" depart="291.00" from="7384205#1" to="-465058626#0"/>
    <trip id="292" depart="292.00" from="7384469#1" to="-7384126#0"/>
    <trip id="293" depart="293.00" from="17257960#2" to="680303811"/>
    <trip id="295" depart="295.00" from="7384336#2" to="-7383104#1"/>
    <trip id="296" depart="296.00" from="-7383259#3" to="7383415#0"/>
    <trip id="297" depart="297.00" from="-7384886#4" to="7384469#0"/>
    <trip id="298" depart="298.00" from="7383010" to="-7384309#1"/>
    <trip id="299" depart="299.00" from="-118925038#4" to="7385027#5"/>
    <trip id="300" depart="300.00" from="-41399965#1" to="7383055"/>
    <trip id="301" depart="301.00" from="224504151#0" to="7383233#1"/>
    <trip id="302" depart="302.00" from="7382913#1" to="7381366#0"/>
    <trip id="303" depart="303.00" from="224504156#2" to="7383404"/>
    <trip id="304" depart="304.00" from="-465058625#4" to="-7383304#2"/>
    <trip id="305" depart="305.00" from="7382920#2" to="-7384451"/>
    <trip id="306" depart="306.00" from="482997281#4" to="187196049#4"/>
    <trip id="307" depart="307.00" from="328244230#5" to="1279356622#1"/>
    <trip id="308" depart="308.00" from="7383145#1" to="-7384646"/>
    <trip id="309" depart="309.00" from="7383012#2" to="-7384298#0"/>
    <trip id="310" depart="310.00" from="-7384139#5" to="-7381112#4"/>
    <trip id="311" depart="311.00" from="-7383113#7" to="-7381112#2"/>
    <trip id="312" depart="312.00" from="35937895#1" to="7383262#2"/>
    <trip id="313" depart="313.00" from="-7383100#1" to="-7383301#11"/>
    <trip id="314" depart="314.00" from="224504144#0" to="7383066"/>
    <trip id="315" depart="315.00" from="738599404#4" to="324205829#1"/>
    <trip id="316" depart="316.00" from="-7384309#8" to="-511321433#1"/>
    <trip id="317" depart="317.00" from="-7383122#0" to="-7383346#2"/>
    <trip id="318" depart="318.00" from="-7383078#0" to="-1353740952"/>
    <trip id="319" depart="319.00" from="34079950#2" to="-7384300#6"/>
    <trip id="320" depart="320.00" from="738596215#4" to="402970039#1"/>
    <trip id="321" depart="321.00" from="7382955" to="-7381440#0"/>
    <trip id="322" depart="322.00" from="7384438#1" to="224504147#2"/>
    <trip id="324" depart="324.00" from="187196049#4" to="144668913#0"/>
    <trip id="325" depart="325.00" from="-7383100#0" to="-27305494"/>
    <trip id="326" depart="326.00" from="7385008#0" to="190590640#2"/>
    <trip id="327" depart="327.00" from="7384161#3" to="1091280604#1"/>
    <trip id="328" depart="328.00" from="-326103965#16" to="707009892"/>
    <trip id="329" depart="329.00" from="-190590640#6" to="-7382848#0"/>
    <trip id="330" depart="330.00" from="465058625#1" to="-7384446#2"/>
    <trip id="331" depart="331.00" from="91708895#4" to="-7381081#3"/>
    <trip id="332" depart="332.00" from="7383282#1" to="640548019#0"/>
    <trip id="333" depart="333.00" from="7383410#0" to="-7383339#4"/>
    <trip id="334" depart="334.00" from="326103965#15" to="156355461"/>
    <trip id="335" depart="335.00" from="146387544#0" to="7384381#1"/>
    <trip id="338" depart="338.00" from="7383122#0" to="7385027#4"/>
    <trip id="339" depart="339.00" from="-7383229#4" to="-7383272#0"/>
    <trip id="340" depart="340.00" from="7382679#1" to="-7382913#1"/>
    <trip id="341" depart="341.00" from="-7383052#1" to="-402936557#2"/>
    <trip id="342" depart="342.00" from="-1091280604#0" to="156355461"/>
    <trip id="343" depart="343.00" from="520384956" to="-7384381#0"/>
    <trip id="344" depart="344.00" from="-7383346#0" to="7383022#1"/>
    <trip id="345" depart="345.00" from="7383012#2" to="159254426#2"/>
    <trip id="346" depart="346.00" from="7382862#8" to="7384932#6"/>
    <trip id="347" depart="347.00" from="7383393#5" to="707009270"/>
    <trip id="348" depart="348.00" from="7382679#2" to="7384967#2"/>
    <trip id="349" depart="349.00" from="1270860757" to="37546755#0"/>
    <trip id="350" depart="350.00" from="7381366#2" to="7384886#1"/>
    <trip id="351" depart="351.00" from="7384185#2" to="-330165531"/>
    <trip id="352" depart="352.00" from="-7383022#5" to="-7384454#0"/>
    <trip id="353" depart="353.00" from="7383208#1" to="465058626#0"/>
    <trip id="356" depart="356.00" from="7385011" to="25664701#3"/>
    <trip id="357" depart="357.00" from="25221021#1" to="-426530259#1"/>
    <trip id="358" depart="358.00" from="-160237536#3" to="1329450668"/>
    <trip id="359" depart="359.00" from="-7384586#4" to="-7384144#2"/>
    <trip id="360" depart="360.00" from="-465058625#1" to="7385062#3"/>
    <trip id="361" depart="361.00" from="7384288" to="47454642#6"/>
    <trip id="363" depart="363.00" from="7382726#0" to="-7384279"/>
    <trip id="364" depart="364.00" from="-160237536#4" to="7383231#0"/>
    <trip id="365" depart="365.00" from="189535193#1" to="7381461#0"/>
    <trip id="366" depart="366.00" from="7384912#1" to="-7383100#2"/>
    <trip id="368" depart="368.00" from="224504159#1" to="-46590527#1"/>
    <trip id="370" depart="370.00" from="7382707" to="7384364#0"/>
    <trip id="371" depart="371.00" from="-7384636#9" to="7382922"/>
    <trip id="372" depart="372.00" from="-7384342" to="7385027#10"/>
    <trip id="373" depart="373.00" from="7384139#5" to="386883299#0"/>
    <trip id="374" depart="374.00" from="160237519#1" to="-7384469#6"/>
    <trip id="375" depart="375.00" from="-7384586#9" to="7385160#0"/>
    <trip id="376" depart="376.00" from="1095951056#0" to="29749817#4"/>
    <trip id="377" depart="377.00" from="817903908" to="7381817"/>
    <trip id="378" depart="378.00" from="386870306" to="118925038#8"/>
    <trip id="379" depart="379.00" from="-7383111#0" to="-7384959#2"/>
    <trip id="380" depart="380.00" from="7383259#0" to="707009270"/>
    <trip id="381" depart="381.00" from="7383262#2" to="-7383231#1"/>
    <trip id="382" depart="382.00" from="402970039#6" to="7384934#6"/>
    <trip id="383" depart="383.00" from="144377976#2" to="7382955"/>
    <trip id="384" depart="384.00" from="-7381081#2" to="738596215#5"/>
    <trip id="385" depart="385.00" from="680090994" to="-7383417#1"/>
    <trip id="386" depart="386.00" from="-7382899#0" to="402936557#0"/>
    <trip id="387" depart="387.00" from="407033673#2" to="-481276173"/>
    <trip id="388" depart="388.00" from="91708895#0" to="7384888"/>
    <trip id="389" depart="389.00" from="160237536#8" to="-7381081#1"/>
    <trip id="390" depart="390.00" from="7384218#0" to="25221021#1"/>
    <trip id="391" depart="391.00" from="7383044#0" to="290636862#4"/>
    <trip id="392" depart="392.00" from="-7384297#1" to="7384228#1"/>
    <trip id="394" depart="394.00" from="407033670" to="-738599404#5"/>
    <trip id="396" depart="396.00" from="7384455#2" to="7384405#4"/>
    <trip id="397" depart="397.00" from="-7384300#2" to="7383393#1"/>
    <trip id="398" depart="398.00" from="118925038#8" to="7384967#4"/>
    <trip id="399" depart="399.00" from="29749817#1" to="7384144#8"/>
    <trip id="400" depart="400.00" from="-7384309#7" to="-7384438#0"/>
    <trip id="401" depart="401.00" from="511321433#0" to="946586128#2"/>
    <trip id="402" depart="402.00" from="224504156#0" to="-7382846#1"/>
    <trip id="403" depart="403.00" from="37546755#4" to="-7384912#3"/>
    <trip id="404" depart="404.00" from="407033673#2" to="35937898#1"/>
    <trip id="405" depart="405.00" from="160237519#2" to="-7384586#4"/>
    <trip id="406" depart="406.00" from="-7383111#2" to="7382951#1"/>
    <trip id="407" depart="407.00" from="47454642#6" to="-7383380#0"/>
    <trip id="408" depart="408.00" from="7383330#1" to="-189535193#1"/>
    <trip id="409" depart="409.00" from="7383134" to="7383016#2"/>
    <trip id="410" depart="410.00" from="7384139#0" to="-893142889#1"/>
    <trip id="411" depart="411.00" from="7382685#1" to="7384144#9"/>
    <trip id="412" depart="412.00" from="741640644#0" to="224504156#2"/>
    <trip id="413" depart="413.00" from="-160237536#0" to="27268752#2"/>
    <trip id="414" depart="414.00" from="511452724#4" to="7384438#2"/>
    <trip id="415" depart="415.00" from="7384447#1" to="144668913#0"/>
    <trip id="416" depart="416.00" from="326103965#8" to="160237515#5"/>
    <trip id="417" depart="417.00" from="7383058#7" to="118925038#10"/>
    <trip id="418" depart="418.00" from="7381627" to="-7382862#8"/>
    <trip id="419" depart="419.00" from="187196049#4" to="7385101"/>
    <trip id="420" depart="420.00" from="-7384886#0" to="7382920#2"/>
    <trip id="421" depart="421.00" from="7381367#3" to="7384342"/>
    <trip id="422" depart="422.00" from="7384348#0" to="7384373#1"/>
    <trip id="424" depart="424.00" from="7383055" to="7383259#2"/>
    <trip id="425" depart="425.00" from="7384446#0" to="-160237536#8"/>
    <trip id="426" depart="426.00" from="-32011213#0" to="707014977#3"/>
    <trip id="428" depart="428.00" from="7383145#2" to="1384353458#1"/>
    <trip id="429" depart="429.00" from="-482997281#1" to="7381014#1"/>
    <trip id="430" depart="430.00" from="7384446#1" to="146387544#3"/>
    <trip id="432" depart="432.00" from="-187196049#0" to="7383411#2"/>
    <trip id="433" depart="433.00" from="-7384373#1" to="-7385062#4"/>
    <trip id="434" depart="434.00" from="-7382732#1" to="326103965#7"/>
    <trip id="435" depart="435.00" from="465058626#2" to="7383396#2"/>
    <trip id="436" depart="436.00" from="-7383042#0" to="-41399964#0"/>
    <trip id="438" depart="438.00" from="-7383393#4" to="7384888"/>
    <trip id="439" depart="439.00" from="-7382704#4" to="160237536#1"/>
    <trip id="440" depart="440.00" from="-7384144#10" to="-7384161#2"/>
    <trip id="441" depart="441.00" from="-118925038#3" to="7383452#1"/>
    <trip id="442" depart="442.00" from="7384637" to="7382802#0"/>
    <trip id="444" depart="444.00" from="-7384912#5" to="511321433#0"/>
    <trip id="445" depart="445.00" from="7381081#3" to="1270860757"/>
    <trip id="446" depart="446.00" from="-7384139#2" to="7384309#5"/>
    <trip id="447" depart="447.00" from="-7383145#0" to="-871208699"/>
    <trip id="448" depart="448.00" from="224458071#3" to="-7383409#1"/>
    <trip id="449" depart="449.00" from="47454642#7" to="47454642#3"/>
    <trip id="450" depart="450.00" from="91708895#1" to="-7384405#4"/>
    <trip id="451" depart="451.00" from="739791355" to="7381819"/>
    <trip id="452" depart="452.00" from="-7384298#0" to="444149538#1"/>
    <trip id="453" depart="453.00" from="7382862#13" to="7383122#5"/>
    <trip id="454" depart="454.00" from="-189535193#0" to="640548019#0"/>
    <trip id="456" depart="456.00" from="-7384336#0" to="7383415#3"/>
    <trip id="457" depart="457.00" from="665080898#0" to="-7384932#2"/>
    <trip id="459" depart="459.00" from="7382802#2" to="7383057#1"/>